*SPEF "ieee 1481-1999"
*DESIGN "ALU"
*DATE "14:06:02 Saturday May 03, 2025"
*VENDOR "The OpenROAD Project"
*PROGRAM "OpenROAD"
*VERSION "b16bda7e82721d10566ff7e2b68f1ff0be9f9e38"
*DESIGN_FLOW "NAME_SCOPE LOCAL" "PIN_CAP NONE"
*DIVIDER /
*DELIMITER :
*BUS_DELIMITER []
*T_UNIT 1 NS
*C_UNIT 1 PF
*R_UNIT 1 OHM
*L_UNIT 1 HENRY

*NAME_MAP
*1 A[0]
*2 A[1]
*3 A[2]
*4 A[3]
*5 A[4]
*6 A[5]
*7 A[6]
*8 A[7]
*9 B[0]
*10 B[1]
*11 B[2]
*12 B[3]
*13 B[4]
*14 B[5]
*15 B[6]
*16 B[7]
*17 OP[0]
*18 OP[1]
*19 OP[2]
*20 OUT[0]
*21 OUT[1]
*22 OUT[2]
*23 OUT[3]
*24 OUT[4]
*25 OUT[5]
*26 OUT[6]
*27 OUT[7]
*30 _000_
*31 _001_
*32 _002_
*33 _003_
*34 _004_
*35 _005_
*36 _006_
*37 _007_
*38 _008_
*39 _009_
*40 _010_
*41 _011_
*42 _012_
*43 _013_
*44 _014_
*45 _015_
*46 _016_
*47 _017_
*48 _018_
*49 _019_
*50 _020_
*51 _021_
*52 _022_
*53 _023_
*54 _024_
*55 _025_
*56 _026_
*57 _027_
*58 _028_
*59 _029_
*60 _030_
*61 _031_
*62 _032_
*63 _033_
*64 _034_
*65 _035_
*66 _036_
*67 _037_
*68 _038_
*69 _039_
*70 _040_
*71 _041_
*72 _042_
*73 _043_
*74 _044_
*75 _045_
*76 _046_
*77 _047_
*78 _048_
*79 _049_
*80 _050_
*81 _051_
*82 _052_
*83 _053_
*84 _054_
*85 _055_
*86 _056_
*87 _057_
*88 _058_
*89 _059_
*90 _060_
*91 _061_
*92 _062_
*93 _063_
*94 _064_
*95 _065_
*96 _066_
*97 _067_
*98 _068_
*99 _069_
*100 _070_
*101 _071_
*102 _072_
*103 _073_
*104 _074_
*105 _075_
*106 _076_
*107 _077_
*108 _078_
*109 _079_
*110 _080_
*111 _081_
*112 _082_
*113 _083_
*114 _084_
*115 _085_
*116 _086_
*117 _087_
*118 _088_
*119 _089_
*120 _090_
*121 _091_
*122 _092_
*123 _093_
*124 _094_
*125 _095_
*126 _096_
*127 _097_
*128 _098_
*129 _099_
*130 _100_
*131 _101_
*132 _102_
*133 _103_
*134 _104_
*135 _105_
*136 _106_
*137 _107_
*138 _108_
*139 _109_
*140 _110_
*141 _111_
*142 _112_
*143 _113_
*144 _114_
*145 _115_
*146 _116_
*147 _117_
*148 _118_
*149 _119_
*150 _120_
*151 _121_
*152 _122_
*153 _123_
*154 _124_
*155 _125_
*156 _126_
*157 _127_
*158 _128_
*159 _129_
*160 _130_
*161 _131_
*162 _132_
*163 _133_
*164 _134_
*165 _135_
*166 _136_
*167 _137_
*168 _138_
*169 _139_
*170 _140_
*171 _141_
*172 _142_
*173 _143_
*174 _144_
*175 _145_
*176 _146_
*177 _147_
*178 _148_
*179 _149_
*180 _150_
*181 _151_
*182 _152_
*183 _153_
*184 _154_
*185 _155_
*186 _156_
*187 _157_
*188 _158_
*189 _159_
*190 _160_
*191 _161_
*192 _162_
*193 _163_
*194 _164_
*195 _165_
*196 _166_
*197 _167_
*198 _168_
*199 _169_
*200 net1
*201 net10
*202 net11
*203 net12
*204 net13
*205 net14
*206 net15
*207 net16
*208 net17
*209 net18
*210 net19
*211 net2
*212 net20
*213 net21
*214 net22
*215 net23
*216 net24
*217 net25
*218 net26
*219 net27
*220 net28
*221 net29
*222 net3
*223 net30
*224 net31
*225 net4
*226 net5
*227 net6
*228 net7
*229 net8
*230 net9
*231 ANTENNA_1
*232 ANTENNA_2
*233 ANTENNA_3
*234 ANTENNA_4
*235 FILLER_0_0_103
*236 FILLER_0_0_111
*237 FILLER_0_0_113
*238 FILLER_0_0_128
*239 FILLER_0_0_141
*240 FILLER_0_0_153
*241 FILLER_0_0_169
*242 FILLER_0_0_184
*243 FILLER_0_0_19
*244 FILLER_0_0_27
*245 FILLER_0_0_35
*246 FILLER_0_0_47
*247 FILLER_0_0_55
*248 FILLER_0_0_57
*249 FILLER_0_0_69
*250 FILLER_0_0_7
*251 FILLER_0_0_81
*252 FILLER_0_0_85
*253 FILLER_0_10_11
*254 FILLER_0_10_114
*255 FILLER_0_10_133
*256 FILLER_0_10_139
*257 FILLER_0_10_14
*258 FILLER_0_10_141
*259 FILLER_0_10_153
*260 FILLER_0_10_161
*261 FILLER_0_10_169
*262 FILLER_0_10_181
*263 FILLER_0_10_189
*264 FILLER_0_10_20
*265 FILLER_0_10_29
*266 FILLER_0_10_3
*267 FILLER_0_10_41
*268 FILLER_0_10_49
*269 FILLER_0_10_59
*270 FILLER_0_10_71
*271 FILLER_0_10_83
*272 FILLER_0_10_85
*273 FILLER_0_10_97
*274 FILLER_0_11_110
*275 FILLER_0_11_113
*276 FILLER_0_11_121
*277 FILLER_0_11_133
*278 FILLER_0_11_138
*279 FILLER_0_11_144
*280 FILLER_0_11_15
*281 FILLER_0_11_150
*282 FILLER_0_11_162
*283 FILLER_0_11_169
*284 FILLER_0_11_181
*285 FILLER_0_11_189
*286 FILLER_0_11_27
*287 FILLER_0_11_3
*288 FILLER_0_11_34
*289 FILLER_0_11_41
*290 FILLER_0_11_48
*291 FILLER_0_11_57
*292 FILLER_0_11_69
*293 FILLER_0_11_81
*294 FILLER_0_11_93
*295 FILLER_0_11_97
*296 FILLER_0_12_108
*297 FILLER_0_12_120
*298 FILLER_0_12_126
*299 FILLER_0_12_130
*300 FILLER_0_12_138
*301 FILLER_0_12_141
*302 FILLER_0_12_147
*303 FILLER_0_12_153
*304 FILLER_0_12_165
*305 FILLER_0_12_177
*306 FILLER_0_12_185
*307 FILLER_0_12_27
*308 FILLER_0_12_35
*309 FILLER_0_12_42
*310 FILLER_0_12_54
*311 FILLER_0_12_66
*312 FILLER_0_12_7
*313 FILLER_0_12_78
*314 FILLER_0_12_85
*315 FILLER_0_12_97
*316 FILLER_0_13_106
*317 FILLER_0_13_113
*318 FILLER_0_13_125
*319 FILLER_0_13_132
*320 FILLER_0_13_144
*321 FILLER_0_13_15
*322 FILLER_0_13_156
*323 FILLER_0_13_182
*324 FILLER_0_13_27
*325 FILLER_0_13_3
*326 FILLER_0_13_39
*327 FILLER_0_13_51
*328 FILLER_0_13_55
*329 FILLER_0_13_63
*330 FILLER_0_13_70
*331 FILLER_0_13_82
*332 FILLER_0_13_94
*333 FILLER_0_14_109
*334 FILLER_0_14_115
*335 FILLER_0_14_12
*336 FILLER_0_14_123
*337 FILLER_0_14_135
*338 FILLER_0_14_139
*339 FILLER_0_14_141
*340 FILLER_0_14_146
*341 FILLER_0_14_152
*342 FILLER_0_14_160
*343 FILLER_0_14_172
*344 FILLER_0_14_184
*345 FILLER_0_14_26
*346 FILLER_0_14_29
*347 FILLER_0_14_3
*348 FILLER_0_14_41
*349 FILLER_0_14_48
*350 FILLER_0_14_60
*351 FILLER_0_14_71
*352 FILLER_0_14_83
*353 FILLER_0_14_85
*354 FILLER_0_14_97
*355 FILLER_0_15_101
*356 FILLER_0_15_109
*357 FILLER_0_15_113
*358 FILLER_0_15_121
*359 FILLER_0_15_145
*360 FILLER_0_15_15
*361 FILLER_0_15_157
*362 FILLER_0_15_165
*363 FILLER_0_15_176
*364 FILLER_0_15_188
*365 FILLER_0_15_27
*366 FILLER_0_15_3
*367 FILLER_0_15_39
*368 FILLER_0_15_51
*369 FILLER_0_15_55
*370 FILLER_0_15_57
*371 FILLER_0_15_69
*372 FILLER_0_15_81
*373 FILLER_0_15_89
*374 FILLER_0_16_11
*375 FILLER_0_16_113
*376 FILLER_0_16_125
*377 FILLER_0_16_137
*378 FILLER_0_16_141
*379 FILLER_0_16_153
*380 FILLER_0_16_157
*381 FILLER_0_16_165
*382 FILLER_0_16_172
*383 FILLER_0_16_184
*384 FILLER_0_16_23
*385 FILLER_0_16_27
*386 FILLER_0_16_29
*387 FILLER_0_16_3
*388 FILLER_0_16_35
*389 FILLER_0_16_43
*390 FILLER_0_16_55
*391 FILLER_0_16_61
*392 FILLER_0_16_7
*393 FILLER_0_16_70
*394 FILLER_0_16_82
*395 FILLER_0_16_85
*396 FILLER_0_16_93
*397 FILLER_0_17_103
*398 FILLER_0_17_111
*399 FILLER_0_17_118
*400 FILLER_0_17_126
*401 FILLER_0_17_138
*402 FILLER_0_17_150
*403 FILLER_0_17_158
*404 FILLER_0_17_167
*405 FILLER_0_17_169
*406 FILLER_0_17_181
*407 FILLER_0_17_185
*408 FILLER_0_17_19
*409 FILLER_0_17_31
*410 FILLER_0_17_43
*411 FILLER_0_17_51
*412 FILLER_0_17_55
*413 FILLER_0_17_57
*414 FILLER_0_17_63
*415 FILLER_0_17_7
*416 FILLER_0_17_75
*417 FILLER_0_17_83
*418 FILLER_0_17_91
*419 FILLER_0_18_109
*420 FILLER_0_18_121
*421 FILLER_0_18_133
*422 FILLER_0_18_139
*423 FILLER_0_18_146
*424 FILLER_0_18_15
*425 FILLER_0_18_154
*426 FILLER_0_18_162
*427 FILLER_0_18_174
*428 FILLER_0_18_182
*429 FILLER_0_18_188
*430 FILLER_0_18_27
*431 FILLER_0_18_29
*432 FILLER_0_18_3
*433 FILLER_0_18_41
*434 FILLER_0_18_53
*435 FILLER_0_18_65
*436 FILLER_0_18_77
*437 FILLER_0_18_83
*438 FILLER_0_18_85
*439 FILLER_0_18_97
*440 FILLER_0_19_107
*441 FILLER_0_19_11
*442 FILLER_0_19_111
*443 FILLER_0_19_113
*444 FILLER_0_19_125
*445 FILLER_0_19_133
*446 FILLER_0_19_138
*447 FILLER_0_19_150
*448 FILLER_0_19_162
*449 FILLER_0_19_169
*450 FILLER_0_19_181
*451 FILLER_0_19_189
*452 FILLER_0_19_22
*453 FILLER_0_19_3
*454 FILLER_0_19_34
*455 FILLER_0_19_38
*456 FILLER_0_19_46
*457 FILLER_0_19_54
*458 FILLER_0_19_57
*459 FILLER_0_19_65
*460 FILLER_0_19_71
*461 FILLER_0_19_83
*462 FILLER_0_19_95
*463 FILLER_0_1_103
*464 FILLER_0_1_111
*465 FILLER_0_1_113
*466 FILLER_0_1_125
*467 FILLER_0_1_137
*468 FILLER_0_1_145
*469 FILLER_0_1_15
*470 FILLER_0_1_155
*471 FILLER_0_1_167
*472 FILLER_0_1_178
*473 FILLER_0_1_27
*474 FILLER_0_1_3
*475 FILLER_0_1_39
*476 FILLER_0_1_51
*477 FILLER_0_1_55
*478 FILLER_0_1_57
*479 FILLER_0_1_67
*480 FILLER_0_1_79
*481 FILLER_0_1_91
*482 FILLER_0_20_121
*483 FILLER_0_20_133
*484 FILLER_0_20_139
*485 FILLER_0_20_141
*486 FILLER_0_20_15
*487 FILLER_0_20_153
*488 FILLER_0_20_161
*489 FILLER_0_20_170
*490 FILLER_0_20_182
*491 FILLER_0_20_188
*492 FILLER_0_20_27
*493 FILLER_0_20_29
*494 FILLER_0_20_3
*495 FILLER_0_20_33
*496 FILLER_0_20_41
*497 FILLER_0_20_50
*498 FILLER_0_20_54
*499 FILLER_0_20_62
*500 FILLER_0_20_67
*501 FILLER_0_20_79
*502 FILLER_0_20_83
*503 FILLER_0_20_85
*504 FILLER_0_20_97
*505 FILLER_0_21_103
*506 FILLER_0_21_113
*507 FILLER_0_21_128
*508 FILLER_0_21_145
*509 FILLER_0_21_157
*510 FILLER_0_21_166
*511 FILLER_0_21_169
*512 FILLER_0_21_173
*513 FILLER_0_21_180
*514 FILLER_0_21_19
*515 FILLER_0_21_29
*516 FILLER_0_21_41
*517 FILLER_0_21_53
*518 FILLER_0_21_57
*519 FILLER_0_21_69
*520 FILLER_0_21_7
*521 FILLER_0_21_73
*522 FILLER_0_21_95
*523 FILLER_0_22_10
*524 FILLER_0_22_105
*525 FILLER_0_22_117
*526 FILLER_0_22_129
*527 FILLER_0_22_137
*528 FILLER_0_22_141
*529 FILLER_0_22_150
*530 FILLER_0_22_162
*531 FILLER_0_22_29
*532 FILLER_0_22_41
*533 FILLER_0_22_49
*534 FILLER_0_22_58
*535 FILLER_0_22_70
*536 FILLER_0_22_82
*537 FILLER_0_22_85
*538 FILLER_0_22_97
*539 FILLER_0_23_111
*540 FILLER_0_23_113
*541 FILLER_0_23_120
*542 FILLER_0_23_132
*543 FILLER_0_23_144
*544 FILLER_0_23_163
*545 FILLER_0_23_167
*546 FILLER_0_23_169
*547 FILLER_0_23_176
*548 FILLER_0_23_188
*549 FILLER_0_23_19
*550 FILLER_0_23_3
*551 FILLER_0_23_31
*552 FILLER_0_23_43
*553 FILLER_0_23_51
*554 FILLER_0_23_70
*555 FILLER_0_23_82
*556 FILLER_0_23_94
*557 FILLER_0_24_11
*558 FILLER_0_24_110
*559 FILLER_0_24_122
*560 FILLER_0_24_134
*561 FILLER_0_24_141
*562 FILLER_0_24_153
*563 FILLER_0_24_159
*564 FILLER_0_24_171
*565 FILLER_0_24_183
*566 FILLER_0_24_189
*567 FILLER_0_24_27
*568 FILLER_0_24_29
*569 FILLER_0_24_3
*570 FILLER_0_24_41
*571 FILLER_0_24_49
*572 FILLER_0_24_54
*573 FILLER_0_24_66
*574 FILLER_0_24_76
*575 FILLER_0_24_85
*576 FILLER_0_24_93
*577 FILLER_0_24_98
*578 FILLER_0_25_111
*579 FILLER_0_25_113
*580 FILLER_0_25_122
*581 FILLER_0_25_149
*582 FILLER_0_25_15
*583 FILLER_0_25_157
*584 FILLER_0_25_167
*585 FILLER_0_25_169
*586 FILLER_0_25_181
*587 FILLER_0_25_189
*588 FILLER_0_25_21
*589 FILLER_0_25_3
*590 FILLER_0_25_33
*591 FILLER_0_25_41
*592 FILLER_0_25_50
*593 FILLER_0_25_57
*594 FILLER_0_25_69
*595 FILLER_0_25_83
*596 FILLER_0_25_91
*597 FILLER_0_26_109
*598 FILLER_0_26_121
*599 FILLER_0_26_133
*600 FILLER_0_26_139
*601 FILLER_0_26_141
*602 FILLER_0_26_150
*603 FILLER_0_26_176
*604 FILLER_0_26_184
*605 FILLER_0_26_19
*606 FILLER_0_26_26
*607 FILLER_0_26_29
*608 FILLER_0_26_37
*609 FILLER_0_26_69
*610 FILLER_0_26_7
*611 FILLER_0_26_81
*612 FILLER_0_26_85
*613 FILLER_0_26_97
*614 FILLER_0_27_10
*615 FILLER_0_27_101
*616 FILLER_0_27_109
*617 FILLER_0_27_117
*618 FILLER_0_27_129
*619 FILLER_0_27_137
*620 FILLER_0_27_145
*621 FILLER_0_27_169
*622 FILLER_0_27_181
*623 FILLER_0_27_22
*624 FILLER_0_27_33
*625 FILLER_0_27_45
*626 FILLER_0_27_51
*627 FILLER_0_27_70
*628 FILLER_0_27_82
*629 FILLER_0_27_89
*630 FILLER_0_2_109
*631 FILLER_0_2_117
*632 FILLER_0_2_127
*633 FILLER_0_2_133
*634 FILLER_0_2_139
*635 FILLER_0_2_141
*636 FILLER_0_2_153
*637 FILLER_0_2_165
*638 FILLER_0_2_180
*639 FILLER_0_2_184
*640 FILLER_0_2_20
*641 FILLER_0_2_29
*642 FILLER_0_2_35
*643 FILLER_0_2_39
*644 FILLER_0_2_51
*645 FILLER_0_2_55
*646 FILLER_0_2_62
*647 FILLER_0_2_7
*648 FILLER_0_2_74
*649 FILLER_0_2_82
*650 FILLER_0_2_85
*651 FILLER_0_2_97
*652 FILLER_0_3_107
*653 FILLER_0_3_11
*654 FILLER_0_3_111
*655 FILLER_0_3_113
*656 FILLER_0_3_125
*657 FILLER_0_3_137
*658 FILLER_0_3_149
*659 FILLER_0_3_161
*660 FILLER_0_3_167
*661 FILLER_0_3_177
*662 FILLER_0_3_181
*663 FILLER_0_3_19
*664 FILLER_0_3_30
*665 FILLER_0_3_37
*666 FILLER_0_3_43
*667 FILLER_0_3_51
*668 FILLER_0_3_55
*669 FILLER_0_3_70
*670 FILLER_0_3_83
*671 FILLER_0_3_95
*672 FILLER_0_4_103
*673 FILLER_0_4_115
*674 FILLER_0_4_121
*675 FILLER_0_4_144
*676 FILLER_0_4_15
*677 FILLER_0_4_156
*678 FILLER_0_4_168
*679 FILLER_0_4_180
*680 FILLER_0_4_188
*681 FILLER_0_4_23
*682 FILLER_0_4_3
*683 FILLER_0_4_40
*684 FILLER_0_4_57
*685 FILLER_0_4_83
*686 FILLER_0_4_91
*687 FILLER_0_5_100
*688 FILLER_0_5_113
*689 FILLER_0_5_117
*690 FILLER_0_5_121
*691 FILLER_0_5_133
*692 FILLER_0_5_145
*693 FILLER_0_5_157
*694 FILLER_0_5_165
*695 FILLER_0_5_169
*696 FILLER_0_5_18
*697 FILLER_0_5_181
*698 FILLER_0_5_189
*699 FILLER_0_5_3
*700 FILLER_0_5_30
*701 FILLER_0_5_42
*702 FILLER_0_5_54
*703 FILLER_0_5_57
*704 FILLER_0_5_70
*705 FILLER_0_5_82
*706 FILLER_0_5_86
*707 FILLER_0_6_109
*708 FILLER_0_6_121
*709 FILLER_0_6_133
*710 FILLER_0_6_14
*711 FILLER_0_6_148
*712 FILLER_0_6_158
*713 FILLER_0_6_170
*714 FILLER_0_6_182
*715 FILLER_0_6_26
*716 FILLER_0_6_3
*717 FILLER_0_6_33
*718 FILLER_0_6_45
*719 FILLER_0_6_53
*720 FILLER_0_6_63
*721 FILLER_0_6_7
*722 FILLER_0_6_75
*723 FILLER_0_6_83
*724 FILLER_0_6_85
*725 FILLER_0_6_97
*726 FILLER_0_7_106
*727 FILLER_0_7_113
*728 FILLER_0_7_125
*729 FILLER_0_7_137
*730 FILLER_0_7_149
*731 FILLER_0_7_15
*732 FILLER_0_7_161
*733 FILLER_0_7_167
*734 FILLER_0_7_169
*735 FILLER_0_7_181
*736 FILLER_0_7_189
*737 FILLER_0_7_27
*738 FILLER_0_7_3
*739 FILLER_0_7_42
*740 FILLER_0_7_54
*741 FILLER_0_7_57
*742 FILLER_0_7_65
*743 FILLER_0_7_76
*744 FILLER_0_7_85
*745 FILLER_0_7_97
*746 FILLER_0_8_102
*747 FILLER_0_8_112
*748 FILLER_0_8_120
*749 FILLER_0_8_128
*750 FILLER_0_8_147
*751 FILLER_0_8_159
*752 FILLER_0_8_171
*753 FILLER_0_8_178
*754 FILLER_0_8_19
*755 FILLER_0_8_27
*756 FILLER_0_8_29
*757 FILLER_0_8_41
*758 FILLER_0_8_7
*759 FILLER_0_8_80
*760 FILLER_0_8_98
*761 FILLER_0_9_102
*762 FILLER_0_9_110
*763 FILLER_0_9_113
*764 FILLER_0_9_125
*765 FILLER_0_9_137
*766 FILLER_0_9_15
*767 FILLER_0_9_157
*768 FILLER_0_9_165
*769 FILLER_0_9_169
*770 FILLER_0_9_173
*771 FILLER_0_9_3
*772 FILLER_0_9_35
*773 FILLER_0_9_47
*774 FILLER_0_9_55
*775 FILLER_0_9_57
*776 FILLER_0_9_69
*777 FILLER_0_9_78
*778 FILLER_0_9_90
*779 PHY_EDGE_ROW_0_Left_28
*780 PHY_EDGE_ROW_0_Right_0
*781 PHY_EDGE_ROW_10_Left_38
*782 PHY_EDGE_ROW_10_Right_10
*783 PHY_EDGE_ROW_11_Left_39
*784 PHY_EDGE_ROW_11_Right_11
*785 PHY_EDGE_ROW_12_Left_40
*786 PHY_EDGE_ROW_12_Right_12
*787 PHY_EDGE_ROW_13_Left_41
*788 PHY_EDGE_ROW_13_Right_13
*789 PHY_EDGE_ROW_14_Left_42
*790 PHY_EDGE_ROW_14_Right_14
*791 PHY_EDGE_ROW_15_Left_43
*792 PHY_EDGE_ROW_15_Right_15
*793 PHY_EDGE_ROW_16_Left_44
*794 PHY_EDGE_ROW_16_Right_16
*795 PHY_EDGE_ROW_17_Left_45
*796 PHY_EDGE_ROW_17_Right_17
*797 PHY_EDGE_ROW_18_Left_46
*798 PHY_EDGE_ROW_18_Right_18
*799 PHY_EDGE_ROW_19_Left_47
*800 PHY_EDGE_ROW_19_Right_19
*801 PHY_EDGE_ROW_1_Left_29
*802 PHY_EDGE_ROW_1_Right_1
*803 PHY_EDGE_ROW_20_Left_48
*804 PHY_EDGE_ROW_20_Right_20
*805 PHY_EDGE_ROW_21_Left_49
*806 PHY_EDGE_ROW_21_Right_21
*807 PHY_EDGE_ROW_22_Left_50
*808 PHY_EDGE_ROW_22_Right_22
*809 PHY_EDGE_ROW_23_Left_51
*810 PHY_EDGE_ROW_23_Right_23
*811 PHY_EDGE_ROW_24_Left_52
*812 PHY_EDGE_ROW_24_Right_24
*813 PHY_EDGE_ROW_25_Left_53
*814 PHY_EDGE_ROW_25_Right_25
*815 PHY_EDGE_ROW_26_Left_54
*816 PHY_EDGE_ROW_26_Right_26
*817 PHY_EDGE_ROW_27_Left_55
*818 PHY_EDGE_ROW_27_Right_27
*819 PHY_EDGE_ROW_2_Left_30
*820 PHY_EDGE_ROW_2_Right_2
*821 PHY_EDGE_ROW_3_Left_31
*822 PHY_EDGE_ROW_3_Right_3
*823 PHY_EDGE_ROW_4_Left_32
*824 PHY_EDGE_ROW_4_Right_4
*825 PHY_EDGE_ROW_5_Left_33
*826 PHY_EDGE_ROW_5_Right_5
*827 PHY_EDGE_ROW_6_Left_34
*828 PHY_EDGE_ROW_6_Right_6
*829 PHY_EDGE_ROW_7_Left_35
*830 PHY_EDGE_ROW_7_Right_7
*831 PHY_EDGE_ROW_8_Left_36
*832 PHY_EDGE_ROW_8_Right_8
*833 PHY_EDGE_ROW_9_Left_37
*834 PHY_EDGE_ROW_9_Right_9
*835 TAP_TAPCELL_ROW_0_56
*836 TAP_TAPCELL_ROW_0_57
*837 TAP_TAPCELL_ROW_0_58
*838 TAP_TAPCELL_ROW_0_59
*839 TAP_TAPCELL_ROW_0_60
*840 TAP_TAPCELL_ROW_0_61
*841 TAP_TAPCELL_ROW_10_89
*842 TAP_TAPCELL_ROW_10_90
*843 TAP_TAPCELL_ROW_10_91
*844 TAP_TAPCELL_ROW_11_92
*845 TAP_TAPCELL_ROW_11_93
*846 TAP_TAPCELL_ROW_11_94
*847 TAP_TAPCELL_ROW_12_95
*848 TAP_TAPCELL_ROW_12_96
*849 TAP_TAPCELL_ROW_12_97
*850 TAP_TAPCELL_ROW_13_100
*851 TAP_TAPCELL_ROW_13_98
*852 TAP_TAPCELL_ROW_13_99
*853 TAP_TAPCELL_ROW_14_101
*854 TAP_TAPCELL_ROW_14_102
*855 TAP_TAPCELL_ROW_14_103
*856 TAP_TAPCELL_ROW_15_104
*857 TAP_TAPCELL_ROW_15_105
*858 TAP_TAPCELL_ROW_15_106
*859 TAP_TAPCELL_ROW_16_107
*860 TAP_TAPCELL_ROW_16_108
*861 TAP_TAPCELL_ROW_16_109
*862 TAP_TAPCELL_ROW_17_110
*863 TAP_TAPCELL_ROW_17_111
*864 TAP_TAPCELL_ROW_17_112
*865 TAP_TAPCELL_ROW_18_113
*866 TAP_TAPCELL_ROW_18_114
*867 TAP_TAPCELL_ROW_18_115
*868 TAP_TAPCELL_ROW_19_116
*869 TAP_TAPCELL_ROW_19_117
*870 TAP_TAPCELL_ROW_19_118
*871 TAP_TAPCELL_ROW_1_62
*872 TAP_TAPCELL_ROW_1_63
*873 TAP_TAPCELL_ROW_1_64
*874 TAP_TAPCELL_ROW_20_119
*875 TAP_TAPCELL_ROW_20_120
*876 TAP_TAPCELL_ROW_20_121
*877 TAP_TAPCELL_ROW_21_122
*878 TAP_TAPCELL_ROW_21_123
*879 TAP_TAPCELL_ROW_21_124
*880 TAP_TAPCELL_ROW_22_125
*881 TAP_TAPCELL_ROW_22_126
*882 TAP_TAPCELL_ROW_22_127
*883 TAP_TAPCELL_ROW_23_128
*884 TAP_TAPCELL_ROW_23_129
*885 TAP_TAPCELL_ROW_23_130
*886 TAP_TAPCELL_ROW_24_131
*887 TAP_TAPCELL_ROW_24_132
*888 TAP_TAPCELL_ROW_24_133
*889 TAP_TAPCELL_ROW_25_134
*890 TAP_TAPCELL_ROW_25_135
*891 TAP_TAPCELL_ROW_25_136
*892 TAP_TAPCELL_ROW_26_137
*893 TAP_TAPCELL_ROW_26_138
*894 TAP_TAPCELL_ROW_26_139
*895 TAP_TAPCELL_ROW_27_140
*896 TAP_TAPCELL_ROW_27_141
*897 TAP_TAPCELL_ROW_27_142
*898 TAP_TAPCELL_ROW_27_143
*899 TAP_TAPCELL_ROW_27_144
*900 TAP_TAPCELL_ROW_27_145
*901 TAP_TAPCELL_ROW_2_65
*902 TAP_TAPCELL_ROW_2_66
*903 TAP_TAPCELL_ROW_2_67
*904 TAP_TAPCELL_ROW_3_68
*905 TAP_TAPCELL_ROW_3_69
*906 TAP_TAPCELL_ROW_3_70
*907 TAP_TAPCELL_ROW_4_71
*908 TAP_TAPCELL_ROW_4_72
*909 TAP_TAPCELL_ROW_4_73
*910 TAP_TAPCELL_ROW_5_74
*911 TAP_TAPCELL_ROW_5_75
*912 TAP_TAPCELL_ROW_5_76
*913 TAP_TAPCELL_ROW_6_77
*914 TAP_TAPCELL_ROW_6_78
*915 TAP_TAPCELL_ROW_6_79
*916 TAP_TAPCELL_ROW_7_80
*917 TAP_TAPCELL_ROW_7_81
*918 TAP_TAPCELL_ROW_7_82
*919 TAP_TAPCELL_ROW_8_83
*920 TAP_TAPCELL_ROW_8_84
*921 TAP_TAPCELL_ROW_8_85
*922 TAP_TAPCELL_ROW_9_86
*923 TAP_TAPCELL_ROW_9_87
*924 TAP_TAPCELL_ROW_9_88
*925 _170_
*926 _171_
*927 _172_
*928 _173_
*929 _174_
*930 _175_
*931 _176_
*932 _177_
*933 _178_
*934 _179_
*935 _180_
*936 _181_
*937 _182_
*938 _183_
*939 _184_
*940 _185_
*941 _186_
*942 _187_
*943 _188_
*944 _189_
*945 _190_
*946 _191_
*947 _192_
*948 _193_
*949 _194_
*950 _195_
*951 _196_
*952 _197_
*953 _198_
*954 _199_
*955 _200_
*956 _201_
*957 _202_
*958 _203_
*959 _204_
*960 _205_
*961 _206_
*962 _207_
*963 _208_
*964 _209_
*965 _210_
*966 _211_
*967 _212_
*968 _213_
*969 _214_
*970 _215_
*971 _216_
*972 _217_
*973 _218_
*974 _219_
*975 _220_
*976 _221_
*977 _222_
*978 _223_
*979 _224_
*980 _225_
*981 _226_
*982 _227_
*983 _228_
*984 _229_
*985 _230_
*986 _231_
*987 _232_
*988 _233_
*989 _234_
*990 _235_
*991 _236_
*992 _237_
*993 _238_
*994 _239_
*995 _240_
*996 _241_
*997 _242_
*998 _243_
*999 _244_
*1000 _245_
*1001 _246_
*1002 _247_
*1003 _248_
*1004 _249_
*1005 _250_
*1006 _251_
*1007 _252_
*1008 _253_
*1009 _254_
*1010 _255_
*1011 _256_
*1012 _257_
*1013 _258_
*1014 _259_
*1015 _260_
*1016 _261_
*1017 _262_
*1018 _263_
*1019 _264_
*1020 _265_
*1021 _266_
*1022 _267_
*1023 _268_
*1024 _269_
*1025 _270_
*1026 _271_
*1027 _272_
*1028 _273_
*1029 _274_
*1030 _275_
*1031 _276_
*1032 _277_
*1033 _278_
*1034 _279_
*1035 _280_
*1036 _281_
*1037 _282_
*1038 _283_
*1039 _284_
*1040 _285_
*1041 _286_
*1042 _287_
*1043 _288_
*1044 _289_
*1045 _290_
*1046 _291_
*1047 _292_
*1048 _293_
*1049 _294_
*1050 _295_
*1051 _296_
*1052 _297_
*1053 _298_
*1054 _299_
*1055 _300_
*1056 _301_
*1057 _302_
*1058 _303_
*1059 _304_
*1060 _305_
*1061 _306_
*1062 _307_
*1063 _308_
*1064 _309_
*1065 _310_
*1066 _311_
*1067 _312_
*1068 _313_
*1069 _314_
*1070 _315_
*1071 _316_
*1072 _317_
*1073 _318_
*1074 _319_
*1075 _320_
*1076 _321_
*1077 _322_
*1078 _323_
*1079 _324_
*1080 _325_
*1081 _326_
*1082 _327_
*1083 _328_
*1084 _329_
*1085 _330_
*1086 _331_
*1087 _332_
*1088 _333_
*1089 _334_
*1090 _335_
*1091 _336_
*1092 _337_
*1093 _338_
*1094 _339_
*1095 _340_
*1096 _341_
*1097 _342_
*1098 _343_
*1099 _344_
*1100 _345_
*1101 _346_
*1102 _347_
*1103 input1
*1104 input10
*1105 input11
*1106 input12
*1107 input13
*1108 input14
*1109 input15
*1110 input16
*1111 input17
*1112 input18
*1113 input19
*1114 input2
*1115 input3
*1116 input4
*1117 input5
*1118 input6
*1119 input7
*1120 input8
*1121 input9
*1122 output20
*1123 output21
*1124 output22
*1125 output23
*1126 output24
*1127 output25
*1128 output26
*1129 output27
*1130 rebuffer1
*1131 rebuffer2
*1132 rebuffer3
*1133 wire28

*PORTS
A[0] I
A[1] I
A[2] I
A[3] I
A[4] I
A[5] I
A[6] I
A[7] I
B[0] I
B[1] I
B[2] I
B[3] I
B[4] I
B[5] I
B[6] I
B[7] I
OP[0] I
OP[1] I
OP[2] I
OUT[0] O
OUT[1] O
OUT[2] O
OUT[3] O
OUT[4] O
OUT[5] O
OUT[6] O
OUT[7] O

*D_NET *1 0.00126022
*CONN
*P A[0] I
*I *1103:A I *D sky130_fd_sc_hd__buf_1
*CAP
1 A[0] 0.00063011
2 *1103:A 0.00063011
3 *1103:A *1110:A 0
*RES
1 A[0] *1103:A 24.4825 
*END

*D_NET *2 0.000739536
*CONN
*P A[1] I
*I *1114:A I *D sky130_fd_sc_hd__clkbuf_2
*CAP
1 A[1] 0.000369768
2 *1114:A 0.000369768
*RES
1 A[1] *1114:A 21.8017 
*END

*D_NET *3 0.00065688
*CONN
*P A[2] I
*I *1115:A I *D sky130_fd_sc_hd__buf_2
*CAP
1 A[2] 0.000256891
2 *1115:A 0.000256891
3 *1115:A *145:16 9.37401e-05
4 *1115:A *222:12 4.93589e-05
*RES
1 A[2] *1115:A 19.0336 
*END

*D_NET *4 0.000847819
*CONN
*P A[3] I
*I *1116:A I *D sky130_fd_sc_hd__clkbuf_2
*CAP
1 A[3] 0.000423909
2 *1116:A 0.000423909
3 *1116:A *222:12 0
*RES
1 A[3] *1116:A 22.4088 
*END

*D_NET *5 0.000609804
*CONN
*P A[4] I
*I *1117:A I *D sky130_fd_sc_hd__buf_2
*CAP
1 A[4] 0.000304902
2 *1117:A 0.000304902
*RES
1 A[4] *1117:A 20.4803 
*END

*D_NET *6 0.00069643
*CONN
*P A[5] I
*I *1118:A I *D sky130_fd_sc_hd__buf_2
*CAP
1 A[5] 0.000348215
2 *1118:A 0.000348215
3 *1118:A *145:24 0
*RES
1 A[5] *1118:A 21.6946 
*END

*D_NET *7 0.000712717
*CONN
*P A[6] I
*I *1119:A I *D sky130_fd_sc_hd__clkbuf_2
*CAP
1 A[6] 0.000356358
2 *1119:A 0.000356358
*RES
1 A[6] *1119:A 21.8017 
*END

*D_NET *8 0.000923265
*CONN
*P A[7] I
*I *1120:A I *D sky130_fd_sc_hd__buf_2
*CAP
1 A[7] 0.000461632
2 *1120:A 0.000461632
*RES
1 A[7] *1120:A 24.1231 
*END

*D_NET *9 0.00106642
*CONN
*P B[0] I
*I *1121:A I *D sky130_fd_sc_hd__clkbuf_2
*CAP
1 B[0] 0.000533208
2 *1121:A 0.000533208
3 *1121:A OUT[0] 0
*RES
1 B[0] *1121:A 23.7643 
*END

*D_NET *10 0.00112387
*CONN
*P B[1] I
*I *1104:A I *D sky130_fd_sc_hd__clkbuf_2
*CAP
1 B[1] 0.00050531
2 *1104:A 0.00050531
3 *1104:A *1084:A 6.74911e-05
4 *1104:A *197:26 2.39982e-05
5 *1104:A *201:18 2.17647e-05
*RES
1 B[1] *1104:A 24.175 
*END

*D_NET *11 0.00155971
*CONN
*P B[2] I
*I *1105:A I *D sky130_fd_sc_hd__clkbuf_2
*CAP
1 B[2] 0.000504602
2 *1105:A 0.000504602
3 *1105:A *71:20 0.000276211
4 *1105:A *111:6 0.000274294
*RES
1 B[2] *1105:A 25.4071 
*END

*D_NET *12 0.00146787
*CONN
*P B[3] I
*I *1106:A I *D sky130_fd_sc_hd__clkbuf_2
*CAP
1 B[3] 0.000502495
2 *1106:A 0.000502495
3 *1106:A *71:20 0.000232399
4 *1106:A *111:6 0.000230482
5 *1106:A *207:18 0
*RES
1 B[3] *1106:A 24.9964 
*END

*D_NET *13 0.00136171
*CONN
*P B[4] I
*I *1107:A I *D sky130_fd_sc_hd__buf_2
*CAP
1 B[4] 0.000537042
2 *1107:A 0.000537042
3 *1107:A *1044:C1 0.000144773
4 *1107:A *71:20 0.000142856
5 *1107:A *204:14 0
*RES
1 B[4] *1107:A 24.4786 
*END

*D_NET *14 0.00101338
*CONN
*P B[5] I
*I *1108:A I *D sky130_fd_sc_hd__buf_2
*CAP
1 B[5] 0.000506691
2 *1108:A 0.000506691
3 *1108:A *1090:A2 0
4 *1108:A *76:18 0
5 *1108:A *136:70 0
6 *1108:A *197:18 0
7 *1108:A *207:12 0
*RES
1 B[5] *1108:A 23.1214 
*END

*D_NET *15 0.00109014
*CONN
*P B[6] I
*I *1109:A I *D sky130_fd_sc_hd__buf_2
*CAP
1 B[6] 0.000488881
2 *1109:A 0.000488881
3 *1109:A *994:A1 5.71472e-05
4 *1109:A *109:12 0
5 *1109:A *207:12 5.52302e-05
*RES
1 B[6] *1109:A 23.6571 
*END

*D_NET *16 0.00111385
*CONN
*P B[7] I
*I *1110:A I *D sky130_fd_sc_hd__clkbuf_2
*CAP
1 B[7] 0.000556925
2 *1110:A 0.000556925
3 *1103:A *1110:A 0
*RES
1 B[7] *1110:A 24.175 
*END

*D_NET *17 0.00143574
*CONN
*P OP[0] I
*I *1111:A I *D sky130_fd_sc_hd__buf_2
*CAP
1 OP[0] 0.000637556
2 *1111:A 0.000637556
3 *1111:A *38:14 0.00016063
*RES
1 OP[0] *1111:A 24.8357 
*END

*D_NET *18 0.000931282
*CONN
*P OP[1] I
*I *1112:A I *D sky130_fd_sc_hd__clkbuf_4
*CAP
1 OP[1] 0.00041612
2 *1112:A 0.00041612
3 *1112:A *950:B 9.90431e-05
*RES
1 OP[1] *1112:A 21.9429 
*END

*D_NET *19 0.00110953
*CONN
*P OP[2] I
*I *1113:A I *D sky130_fd_sc_hd__clkbuf_4
*CAP
1 OP[2] 0.000501534
2 *1113:A 0.000501534
3 *1113:A *229:8 0.000106467
*RES
1 OP[2] *1113:A 23.5857 
*END

*D_NET *20 0.00153604
*CONN
*P OUT[0] O
*I *1122:X O *D sky130_fd_sc_hd__buf_2
*CAP
1 OUT[0] 0.000759982
2 *1122:X 0.000759982
3 OUT[0] *230:16 1.60759e-05
4 *1121:A OUT[0] 0
*RES
1 *1122:X OUT[0] 25.3601 
*END

*D_NET *21 0.000767188
*CONN
*P OUT[1] O
*I *1123:X O *D sky130_fd_sc_hd__buf_2
*CAP
1 OUT[1] 0.000304426
2 *1123:X 0.000304426
3 OUT[1] *1125:A 4.29654e-05
4 OUT[1] *218:22 0.000115369
*RES
1 *1123:X OUT[1] 19.4813 
*END

*D_NET *22 0.000734133
*CONN
*P OUT[2] O
*I *1124:X O *D sky130_fd_sc_hd__buf_2
*CAP
1 OUT[2] 0.000250678
2 *1124:X 0.000250678
3 OUT[2] *56:32 0
4 OUT[2] *89:18 1.16198e-05
5 OUT[2] *206:80 0.00020054
6 OUT[2] *218:22 2.06178e-05
*RES
1 *1124:X OUT[2] 18.267 
*END

*D_NET *23 0.000806878
*CONN
*P OUT[3] O
*I *1125:X O *D sky130_fd_sc_hd__buf_2
*CAP
1 OUT[3] 0.000315115
2 *1125:X 0.000315115
3 OUT[3] *56:32 0
4 OUT[3] *56:38 5.92267e-05
5 OUT[3] *218:28 0.000117421
*RES
1 *1125:X OUT[3] 19.4813 
*END

*D_NET *24 0.000635105
*CONN
*P OUT[4] O
*I *1126:X O *D sky130_fd_sc_hd__buf_2
*CAP
1 OUT[4] 0.000301847
2 *1126:X 0.000301847
3 OUT[4] *56:38 9.60337e-06
4 OUT[4] *218:28 2.18087e-05
*RES
1 *1126:X OUT[4] 18.267 
*END

*D_NET *25 0.000753877
*CONN
*P OUT[5] O
*I *1127:X O *D sky130_fd_sc_hd__buf_2
*CAP
1 OUT[5] 0.000288614
2 *1127:X 0.000288614
3 OUT[5] *56:38 5.92267e-05
4 OUT[5] *218:28 0.000117421
*RES
1 *1127:X OUT[5] 19.4813 
*END

*D_NET *26 0.000656072
*CONN
*P OUT[6] O
*I *1128:X O *D sky130_fd_sc_hd__clkbuf_4
*CAP
1 OUT[6] 0.000328036
2 *1128:X 0.000328036
*RES
1 *1128:X OUT[6] 18.267 
*END

*D_NET *27 0.0014294
*CONN
*P OUT[7] O
*I *1129:X O *D sky130_fd_sc_hd__buf_2
*CAP
1 OUT[7] 0.000694831
2 *1129:X 0.000694831
3 OUT[7] *1067:B1 0
4 OUT[7] *33:18 3.9733e-05
*RES
1 *1129:X OUT[7] 26.767 
*END

*D_NET *30 0.0139045
*CONN
*I *999:A1 I *D sky130_fd_sc_hd__o21a_2
*I *1000:B I *D sky130_fd_sc_hd__or3_4
*I *997:X O *D sky130_fd_sc_hd__and3_1
*CAP
1 *999:A1 0.00137627
2 *1000:B 0.000365159
3 *997:X 0.000324064
4 *30:18 0.00239623
5 *30:8 0.0037314
6 *999:A1 *970:B 5.18169e-05
7 *999:A1 *979:A 6.45885e-05
8 *999:A1 *999:A2 0.000139623
9 *999:A1 *1033:B1 0
10 *999:A1 *1054:A1 0.000401612
11 *999:A1 *1062:A1 0.000241026
12 *999:A1 *31:32 9.67517e-05
13 *999:A1 *131:118 0
14 *999:A1 *148:20 7.25396e-05
15 *999:A1 *148:26 3.22265e-05
16 *999:A1 *148:70 1.06328e-05
17 *999:A1 *148:87 0.000123296
18 *999:A1 *176:26 0
19 *999:A1 *186:57 0.000360976
20 *999:A1 *207:40 0.000128608
21 *1000:B *1000:C 4.7812e-05
22 *1000:B *95:14 0.000311391
23 *30:8 *997:C 0.000136951
24 *30:8 *45:108 7.65812e-05
25 *30:18 *1000:C 0
26 *30:18 *1005:A1 0
27 *30:18 *1005:A2 0
28 *30:18 *1054:A1 9.9462e-05
29 *30:18 *31:32 9.69455e-05
30 *30:18 *85:16 7.57466e-05
31 *30:18 *131:139 0.000999102
32 *30:18 *137:126 7.60754e-05
33 *30:18 *137:147 0.000239462
34 *30:18 *193:24 0.00126909
35 *30:18 *204:62 0.000464893
36 *30:18 *222:52 9.41642e-05
*RES
1 *997:X *30:8 17.6214 
2 *30:8 *30:18 48.9643 
3 *30:18 *1000:B 18.8714 
4 *30:8 *999:A1 47.175 
*END

*D_NET *31 0.0233484
*CONN
*I *1000:C I *D sky130_fd_sc_hd__or3_4
*I *999:A2 I *D sky130_fd_sc_hd__o21a_2
*I *998:Y O *D sky130_fd_sc_hd__a21oi_2
*CAP
1 *1000:C 0.00211504
2 *999:A2 0.000831053
3 *998:Y 0.00155873
4 *31:32 0.00163946
5 *31:14 0.00448218
6 *999:A2 *1032:B 0.000392405
7 *999:A2 *84:22 0.000178982
8 *999:A2 *135:49 0.00080455
9 *999:A2 *154:18 5.0777e-05
10 *999:A2 *203:38 0.000523731
11 *999:A2 *230:46 0.000991812
12 *999:A2 *230:60 7.35637e-05
13 *1000:C *963:A_N 0.00017939
14 *1000:C *1005:A2 0.000147582
15 *1000:C *1055:A1 0.000417805
16 *1000:C *1067:B1 1.03904e-05
17 *1000:C *33:18 0.000288261
18 *1000:C *33:42 3.30646e-05
19 *1000:C *38:39 2.24813e-05
20 *1000:C *43:24 0.000163473
21 *1000:C *46:20 0.000998533
22 *1000:C *48:14 0.000897916
23 *1000:C *56:38 0
24 *1000:C *73:24 0.000234307
25 *1000:C *95:14 4.97967e-05
26 *31:14 *963:A_N 9.24758e-05
27 *31:14 *33:42 2.74485e-05
28 *31:14 *43:24 0.000603433
29 *31:14 *44:22 0.000651109
30 *31:14 *46:20 0.002313
31 *31:14 *50:85 4.12767e-05
32 *31:14 *205:24 2.34372e-06
33 *31:32 *1054:A1 0.000537718
34 *31:32 *1054:B1 0.000492734
35 *31:32 *33:42 9.81561e-05
36 *31:32 *45:108 0.000302665
37 *31:32 *66:26 0.000142812
38 *31:32 *131:118 0.000313703
39 *31:32 *135:49 9.18765e-06
40 *31:32 *154:18 0.000174224
41 *31:32 *198:12 7.97236e-05
42 *31:32 *203:46 0
43 *999:A1 *999:A2 0.000139623
44 *999:A1 *31:32 9.67517e-05
45 *1000:B *1000:C 4.7812e-05
46 *30:18 *1000:C 0
47 *30:18 *31:32 9.69455e-05
*RES
1 *998:Y *31:14 27.8705 
2 *31:14 *31:32 31.8386 
3 *31:32 *999:A2 36.4161 
4 *31:14 *1000:C 28.9656 
*END

*D_NET *32 0.0245503
*CONN
*I *1074:B I *D sky130_fd_sc_hd__or3_1
*I *1005:A2 I *D sky130_fd_sc_hd__o21ai_4
*I *1002:A_N I *D sky130_fd_sc_hd__and3b_2
*I *1069:A_N I *D sky130_fd_sc_hd__and2b_1
*I *999:X O *D sky130_fd_sc_hd__o21a_2
*CAP
1 *1074:B 0
2 *1005:A2 0.000644895
3 *1002:A_N 0.000859144
4 *1069:A_N 0
5 *999:X 0.000572453
6 *32:55 0.00246885
7 *32:43 0.00157681
8 *32:34 0.00131319
9 *32:20 0.00249764
10 *1002:A_N *1002:C 0.000334757
11 *1002:A_N *1008:A 0.000404439
12 *1002:A_N *1008:B 0.000221893
13 *1002:A_N *35:16 4.22698e-05
14 *1002:A_N *41:10 0.000151108
15 *1002:A_N *96:20 1.24368e-05
16 *1005:A2 *1005:A1 0.000125885
17 *1005:A2 *1067:A3 4.37451e-05
18 *1005:A2 *1067:B1 8.7431e-06
19 *1005:A2 *41:10 9.47378e-05
20 *1005:A2 *86:14 1.46126e-05
21 *1005:A2 *96:20 0.000842322
22 *1005:A2 *131:139 0.00022604
23 *32:20 *948:B1 0
24 *32:20 *979:A 0.000453935
25 *32:20 *1032:B 5.33005e-05
26 *32:20 *1033:B1 0.000262167
27 *32:20 *41:30 0.000111379
28 *32:20 *45:108 0.000525417
29 *32:20 *50:30 0.00010769
30 *32:20 *123:18 5.22372e-05
31 *32:20 *135:49 4.60232e-06
32 *32:34 *1062:A1 0.000180951
33 *32:34 *1069:B 4.37451e-05