*SPEF "ieee 1481-1999"
*DESIGN "twos_complement"
*DATE "20:28:31 Friday April 25, 2025"
*VENDOR "The OpenROAD Project"
*PROGRAM "OpenROAD"
*VERSION "b16bda7e82721d10566ff7e2b68f1ff0be9f9e38"
*DESIGN_FLOW "NAME_SCOPE LOCAL" "PIN_CAP NONE"
*DIVIDER /
*DELIMITER :
*BUS_DELIMITER []
*T_UNIT 1 NS
*C_UNIT 1 PF
*R_UNIT 1 OHM
*L_UNIT 1 HENRY

*NAME_MAP
*3 in[0]
*4 in[1]
*5 in[2]
*6 in[3]
*7 in[4]
*8 in[5]
*9 in[6]
*10 in[7]
*11 out[0]
*12 out[1]
*13 out[2]
*14 out[3]
*15 out[4]
*16 out[5]
*17 out[6]
*18 out[7]
*19 _00_
*20 _01_
*21 _02_
*22 _03_
*23 _04_
*24 _05_
*25 _06_
*26 _07_
*27 _08_
*28 net1
*29 net10
*30 net11
*31 net12
*32 net13
*33 net14
*34 net15
*35 net16
*36 net2
*37 net3
*38 net4
*39 net5
*40 net6
*41 net7
*42 net8
*43 net9
*44 FILLER_0_0_21
*45 FILLER_0_0_27
*46 FILLER_0_0_36
*47 FILLER_0_0_9
*48 FILLER_0_10_11
*49 FILLER_0_10_23
*50 FILLER_0_10_27
*51 FILLER_0_10_36
*52 FILLER_0_11_18
*53 FILLER_0_11_30
*54 FILLER_0_11_42
*55 FILLER_0_11_6
*56 FILLER_0_12_16
*57 FILLER_0_12_29
*58 FILLER_0_12_37
*59 FILLER_0_1_15
*60 FILLER_0_1_27
*61 FILLER_0_1_3
*62 FILLER_0_1_39
*63 FILLER_0_1_47
*64 FILLER_0_2_11
*65 FILLER_0_2_23
*66 FILLER_0_2_27
*67 FILLER_0_2_29
*68 FILLER_0_2_3
*69 FILLER_0_2_41
*70 FILLER_0_2_47
*71 FILLER_0_2_7
*72 FILLER_0_3_14
*73 FILLER_0_3_23
*74 FILLER_0_3_27
*75 FILLER_0_3_33
*76 FILLER_0_3_41
*77 FILLER_0_3_6
*78 FILLER_0_4_17
*79 FILLER_0_4_25
*80 FILLER_0_4_3
*81 FILLER_0_4_39
*82 FILLER_0_4_47
*83 FILLER_0_4_7
*84 FILLER_0_5_18
*85 FILLER_0_5_30
*86 FILLER_0_5_42
*87 FILLER_0_5_6
*88 FILLER_0_6_15
*89 FILLER_0_6_27
*90 FILLER_0_6_29
*91 FILLER_0_6_3
*92 FILLER_0_6_41
*93 FILLER_0_6_47
*94 FILLER_0_7_15
*95 FILLER_0_7_23
*96 FILLER_0_7_27
*97 FILLER_0_7_3
*98 FILLER_0_7_40
*99 FILLER_0_8_14
*100 FILLER_0_8_20
*101 FILLER_0_8_29
*102 FILLER_0_8_37
*103 FILLER_0_8_46
*104 FILLER_0_8_6
*105 FILLER_0_9_15
*106 FILLER_0_9_27
*107 FILLER_0_9_3
*108 FILLER_0_9_39
*109 FILLER_0_9_47
*110 PHY_EDGE_ROW_0_Left_13
*111 PHY_EDGE_ROW_0_Right_0
*112 PHY_EDGE_ROW_10_Left_23
*113 PHY_EDGE_ROW_10_Right_10
*114 PHY_EDGE_ROW_11_Left_24
*115 PHY_EDGE_ROW_11_Right_11
*116 PHY_EDGE_ROW_12_Left_25
*117 PHY_EDGE_ROW_12_Right_12
*118 PHY_EDGE_ROW_1_Left_14
*119 PHY_EDGE_ROW_1_Right_1
*120 PHY_EDGE_ROW_2_Left_15
*121 PHY_EDGE_ROW_2_Right_2
*122 PHY_EDGE_ROW_3_Left_16
*123 PHY_EDGE_ROW_3_Right_3
*124 PHY_EDGE_ROW_4_Left_17
*125 PHY_EDGE_ROW_4_Right_4
*126 PHY_EDGE_ROW_5_Left_18
*127 PHY_EDGE_ROW_5_Right_5
*128 PHY_EDGE_ROW_6_Left_19
*129 PHY_EDGE_ROW_6_Right_6
*130 PHY_EDGE_ROW_7_Left_20
*131 PHY_EDGE_ROW_7_Right_7
*132 PHY_EDGE_ROW_8_Left_21
*133 PHY_EDGE_ROW_8_Right_8
*134 PHY_EDGE_ROW_9_Left_22
*135 PHY_EDGE_ROW_9_Right_9
*136 TAP_TAPCELL_ROW_0_26
*137 TAP_TAPCELL_ROW_10_31
*138 TAP_TAPCELL_ROW_12_32
*139 TAP_TAPCELL_ROW_2_27
*140 TAP_TAPCELL_ROW_4_28
*141 TAP_TAPCELL_ROW_6_29
*142 TAP_TAPCELL_ROW_8_30
*143 _09_
*144 _10_
*145 _11_
*146 _12_
*147 _13_
*148 _14_
*149 _15_
*150 _16_
*151 _17_
*152 _18_
*153 _19_
*154 _20_
*155 _21_
*156 _22_
*157 _23_
*158 _24_
*159 _25_
*160 input1
*161 input2
*162 input3
*163 input4
*164 input5
*165 input6
*166 input7
*167 input8
*168 output10
*169 output11
*170 output12
*171 output13
*172 output14
*173 output15
*174 output16
*175 output9

*PORTS
in[0] I
in[1] I
in[2] I
in[3] I
in[4] I
in[5] I
in[6] I
in[7] I
out[0] O
out[1] O
out[2] O
out[3] O
out[4] O
out[5] O
out[6] O
out[7] O

*D_NET *3 0.00111812
*CONN
*P in[0] I
*I *160:A I *D sky130_fd_sc_hd__dlymetal6s2s_1
*CAP
1 in[0] 0.00055906
2 *160:A 0
3 *3:11 0.00055906
4 *3:11 *4:17 0
*RES
1 in[0] *3:11 31.1218 
2 *3:11 *160:A 23 
*END

*D_NET *4 0.000813354
*CONN
*P in[1] I
*I *161:A I *D sky130_fd_sc_hd__buf_1
*CAP
1 in[1] 0.000406677
2 *161:A 0
3 *4:17 0.000406677
4 *4:17 *5:15 0
5 *4:17 *28:12 0
6 *3:11 *4:17 0
*RES
1 in[1] *4:17 28.9191 
2 *4:17 *161:A 23 
*END

*D_NET *5 0.00103576
*CONN
*P in[2] I
*I *162:A I *D sky130_fd_sc_hd__buf_1
*CAP
1 in[2] 0.00049123
2 *162:A 0
3 *5:15 0.00049123
4 *5:15 *6:17 0
5 *5:15 *21:8 5.3304e-05
6 *5:15 *39:12 0
7 *4:17 *5:15 0
*RES
1 in[2] *5:15 29.0176 
2 *5:15 *162:A 23 
*END

*D_NET *6 0.000760724
*CONN
*P in[3] I
*I *163:A I *D sky130_fd_sc_hd__clkbuf_1
*CAP
1 in[3] 0.000380362
2 *163:A 0
3 *6:17 0.000380362
4 *6:17 *7:17 0
5 *6:17 *39:12 0
6 *5:15 *6:17 0
*RES
1 in[3] *6:17 28.2148 
2 *6:17 *163:A 23 
*END

*D_NET *7 0.000651797
*CONN
*P in[4] I
*I *164:A I *D sky130_fd_sc_hd__buf_1
*CAP
1 in[4] 0.000322132
2 *164:A 0
3 *7:17 0.000322132
4 *7:17 *8:17 0
5 *7:17 *28:12 0
6 *7:17 *39:12 7.53384e-06
7 *6:17 *7:17 0
*RES
1 in[4] *7:17 27.1584 
2 *7:17 *164:A 23 
*END

*D_NET *8 0.000761607
*CONN
*P in[5] I
*I *165:A I *D sky130_fd_sc_hd__buf_1
*CAP
1 in[5] 0.000380803
2 *165:A 0
3 *8:17 0.000380803
4 *8:17 *166:A 0
5 *8:17 *34:12 0
6 *7:17 *8:17 0
*RES
1 in[5] *8:17 28.567 
2 *8:17 *165:A 23 
*END

*D_NET *9 0.000603153
*CONN
*P in[6] I
*I *166:A I *D sky130_fd_sc_hd__clkbuf_1
*CAP
1 in[6] 0.000301577
2 *166:A 0.000301577
3 *166:A *10:11 0
4 *8:17 *166:A 0
*RES
1 in[6] *166:A 49.8062 
*END

*D_NET *10 0.00132481
*CONN
*P in[7] I
*I *167:A I *D sky130_fd_sc_hd__clkbuf_1
*CAP
1 in[7] 0.000642787
2 *167:A 0
3 *10:11 0.000642787
4 *10:11 *34:12 3.92407e-05
5 *166:A *10:11 0
*RES
1 in[7] *10:11 32.0837 
2 *10:11 *167:A 23 
*END

*D_NET *11 0.00123536
*CONN
*P out[0] O
*I *175:X O *D sky130_fd_sc_hd__buf_2
*CAP
1 out[0] 0.00029892
2 *175:X 0.000318757
3 *11:8 0.000617678
4 out[0] out[1] 0
*RES
1 *175:X *11:8 44.6596 
2 *11:8 out[0] 9.10133 
*END

*D_NET *12 0.00046494
*CONN
*P out[1] O
*I *168:X O *D sky130_fd_sc_hd__buf_2
*CAP
1 out[1] 0.00023247
2 *168:X 0.00023247
3 out[1] out[2] 0
4 out[0] out[1] 0
*RES
1 *168:X out[1] 47.0789 
*END

*D_NET *13 0.000473771
*CONN
*P out[2] O
*I *169:X O *D sky130_fd_sc_hd__buf_2
*CAP
1 out[2] 0.000231758
2 *169:X 0.000231758
3 out[2] out[3] 0
4 out[2] *33:12 1.02561e-05
5 out[1] out[2] 0
*RES
1 *169:X out[2] 47.0789 
*END

*D_NET *14 0.000503037
*CONN
*P out[3] O
*I *170:X O *D sky130_fd_sc_hd__buf_2
*CAP
1 out[3] 0.000237769
2 *170:X 0.000237769
3 out[3] out[4] 0
4 out[3] *33:12 2.74987e-05
5 out[2] out[3] 0
*RES
1 *170:X out[3] 47.4311 
*END

*D_NET *15 0.000467688
*CONN
*P out[4] O
*I *171:X O *D sky130_fd_sc_hd__buf_2
*CAP
1 out[4] 0.000227473
2 *171:X 0.000227473
3 out[4] out[5] 0
4 out[4] *33:12 1.27424e-05
5 out[3] out[4] 0
*RES
1 *171:X out[4] 47.0789 
*END

*D_NET *16 0.000632469
*CONN
*P out[5] O
*I *172:X O *D sky130_fd_sc_hd__buf_2
*CAP
1 out[5] 0.000294605
2 *172:X 0.000294605
3 out[5] out[6] 0
4 out[5] *174:A 4.32584e-05
5 out[4] out[5] 0
*RES
1 *172:X out[5] 48.4875 
*END

*D_NET *17 0.00081608
*CONN
*P out[6] O
*I *173:X O *D sky130_fd_sc_hd__buf_2
*CAP
1 out[6] 0.00040804
2 *173:X 0.00040804
3 out[6] out[7] 0
4 out[5] out[6] 0
*RES
1 *173:X out[6] 47.5941 
*END

*D_NET *18 0.00110166
*CONN
*P out[7] O
*I *174:X O *D sky130_fd_sc_hd__clkbuf_4
*CAP
1 out[7] 0.000175108
2 *174:X 0.000375724
3 *18:8 0.000550832
4 out[6] out[7] 0
*RES
1 *174:X *18:8 45.7161 
2 *18:8 out[7] 8.672 
*END

*D_NET *19 0.010871
*CONN
*I *149:D I *D sky130_fd_sc_hd__or4_1
*I *145:B I *D sky130_fd_sc_hd__and2_1
*I *158:B1_N I *D sky130_fd_sc_hd__a21boi_1
*I *144:B I *D sky130_fd_sc_hd__nor2_1
*I *148:A3 I *D sky130_fd_sc_hd__o31a_1
*I *143:X O *D sky130_fd_sc_hd__or4_2
*CAP
1 *149:D 5.145e-05
2 *145:B 0
3 *158:B1_N 0.00014597
4 *144:B 0
5 *148:A3 0
6 *143:X 0.000307244
7 *19:63 0.000334728
8 *19:48 0.00182626
9 *19:28 0.000656103
10 *19:14 0.000724971
11 *19:12 0.00159985
12 *19:10 0.000544112
13 *158:B1_N *28:12 0.000168754
14 *158:B1_N *28:21 0.000269714
15 *158:B1_N *34:12 7.91493e-05
16 *158:B1_N *43:8 0.000227935
17 *19:10 *143:A 6.82611e-05
18 *19:10 *143:D 5.3304e-05
19 *19:10 *37:16 0
20 *19:10 *43:12 0.000139647
21 *19:12 *149:A 9.95114e-05
22 *19:12 *37:24 0.000286812
23 *19:12 *43:12 0.000509855
24 *19:14 *37:24 0.000151898
25 *19:14 *43:12 0.000163343
26 *19:28 *173:A 3.98818e-05
27 *19:28 *174:A 0
28 *19:28 *22:12 1.01436e-05
29 *19:28 *33:12 0
30 *19:28 *37:24 0.000218952
31 *19:28 *39:25 1.75666e-05
32 *19:28 *41:8 1.24376e-05
33 *19:28 *41:19 0.000256096
34 *19:28 *43:12 3.70187e-05
35 *19:48 *32:14 5.25011e-05
36 *19:48 *39:12 8.91468e-07
37 *19:48 *39:19 0.000101334
38 *19:48 *39:34 7.89586e-06
39 *19:63 *28:12 0.00112954
40 *19:63 *34:12 0.000577837
*RES
1 *143:X *19:10 42.9093 
2 *19:10 *19:12 6.83571 
3 *19:12 *19:14 2.25786 
4 *19:14 *19:28 44.0236 
5 *19:28 *148:A3 38 
6 *19:14 *144:B 38 
7 *19:12 *19:48 45.8671 
8 *19:48 *158:B1_N 43.2614 
9 *19:48 *19:63 29.935 
10 *19:63 *145:B 23 
11 *19:10 *149:D 38.6214 
*END

*D_NET *20 0.00634988
*CONN
*I *147:B I *D sky130_fd_sc_hd__xnor2_1
*I *146:A I *D sky130_fd_sc_hd__nor2_1
*I *144:Y O *D sky130_fd_sc_hd__nor2_1
*CAP
1 *147:B 0
2 *146:A 0
3 *144:Y 0.000191627
4 *20:23 0.000497823
5 *20:14 0.000613517
6 *20:8 0.00130297
7 *20:8 *43:8 0.000219383
8 *20:14 *22:12 0.000370859
9 *20:14 *32:6 0.000360503
10 *20:14 *39:25 0.0003731
11 *20:23 *169:A 0.000484273
12 *20:23 *22:12 0.000681376
13 *20:23 *36:10 1.47563e-05
14 *20:23 *36:12 8.57661e-05
15 *20:23 *36:14 4.85126e-05
16 *20:23 *37:16 7.44146e-05
17 *20:23 *39:25 0.000337002
18 *20:23 *40:31 0.000694002
19 *20:23 *43:12 0
*RES
1 *144:Y *20:8 40.5271 
2 *20:8 *20:14 30.7014 
3 *20:14 *146:A 23 
4 *20:8 *20:23 33.1043 
5 *20:23 *147:B 23 
*END

*D_NET *21 0.00350551
*CONN
*I *146:B I *D sky130_fd_sc_hd__nor2_1
*I *145:X O *D sky130_fd_sc_hd__and2_1
*CAP
1 *146:B 0
2 *145:X 4.99221e-05
3 *21:12 0.000846228
4 *21:8 0.00089615
5 *21:12 *34:12 0.00165991
6 *5:15 *21:8 5.3304e-05
*RES
1 *145:X *21:8 38.6214 
2 *21:8 *21:12 36.9779 
3 *21:12 *146:B 23 
*END

*D_NET *22 0.00383684
*CONN
*I *150:A_N I *D sky130_fd_sc_hd__and2b_1
*I *148:X O *D sky130_fd_sc_hd__o31a_1
*CAP
1 *150:A_N 0
2 *148:X 0.000134577
3 *22:12 0.000533355
4 *22:8 0.000667933
5 *22:8 *41:8 0.000182826
6 *22:12 *32:14 0.000582829
7 *22:12 *37:16 0.000190218
8 *22:12 *39:25 0.000174314
9 *22:12 *41:19 0.000308408
10 *19:28 *22:12 1.01436e-05
11 *20:14 *22:12 0.000370859
12 *20:23 *22:12 0.000681376
*RES
1 *148:X *22:8 40.0507 
2 *22:8 *22:12 33.8086 
3 *22:12 *150:A_N 23 
*END

*D_NET *23 0.00335778
*CONN
*I *150:B I *D sky130_fd_sc_hd__and2b_1
*I *152:B I *D sky130_fd_sc_hd__xor2_1
*I *149:X O *D sky130_fd_sc_hd__or4_1
*CAP
1 *150:B 0
2 *152:B 0
3 *149:X 0.000150054
4 *23:14 0.000513428
5 *23:6 0.000663482
6 *23:6 *149:B 0.000135037
7 *23:6 *40:25 9.41704e-05
8 *23:14 *143:D 9.03979e-05
9 *23:14 *152:A 5.56279e-05
10 *23:14 *154:B 0.000218962
11 *23:14 *154:C 0.000136775
12 *23:14 *25:8 0.000138718
13 *23:14 *28:36 0.000197946
14 *23:14 *35:8 0.000317553
15 *23:14 *36:12 0.000204337
16 *23:14 *36:14 0.000391672
17 *23:14 *40:8 4.96207e-05
18 *23:14 *40:25 0
*RES
1 *149:X *23:6 25.5271 
2 *23:6 *23:14 45.9707 
3 *23:14 *152:B 23 
4 *23:6 *150:B 23 
*END

*D_NET *24 0.00281524
*CONN
*I *151:A I *D sky130_fd_sc_hd__clkbuf_1
*I *150:X O *D sky130_fd_sc_hd__and2b_1
*CAP
1 *151:A 0
2 *150:X 0.00037558
3 *24:12 0.000748725
4 *24:8 0.00112431
5 *24:8 *27:10 3.73896e-05
6 *24:8 *40:25 0.000310647
7 *24:12 *27:10 2.61849e-05
8 *24:12 *28:12 0
9 *24:12 *34:12 0
10 *24:12 *38:14 0.000192413
*RES
1 *150:X *24:8 45.2914 
2 *24:8 *24:12 29.5829 
3 *24:12 *151:A 23 
*END

*D_NET *25 0.00303411
*CONN
*I *156:A I *D sky130_fd_sc_hd__and2_1
*I *158:A2 I *D sky130_fd_sc_hd__a21boi_1
*I *154:X O *D sky130_fd_sc_hd__or3_1
*CAP
1 *156:A 0
2 *158:A2 5.27326e-05
3 *154:X 5.62067e-05
4 *25:25 0.000371226
5 *25:12 0.000480824
6 *25:8 0.000113072
7 *158:A2 *28:21 0.000273267
8 *158:A2 *43:8 0.000274974
9 *25:8 *154:C 0.000138718
10 *25:12 *153:B 4.08664e-05
11 *25:12 *28:21 0.000227208
12 *25:12 *43:8 0.000256538
13 *25:25 *143:D 0
14 *25:25 *26:10 2.60152e-05
15 *25:25 *28:36 0
16 *25:25 *40:25 0.00058374
17 *23:14 *25:8 0.000138718
*RES
1 *154:X *25:8 39.9057 
2 *25:8 *25:12 18.0036 
3 *25:12 *158:A2 26.0036 
4 *25:12 *25:25 38.5964 
5 *25:25 *156:A 23 
*END

*D_NET *26 0.00195616
*CONN
*I *156:B I *D sky130_fd_sc_hd__and2_1
*I *155:Y O *D sky130_fd_sc_hd__o21ai_1
*CAP
1 *156:B 0
2 *155:Y 0.000833194
3 *26:10 0.000833194
4 *26:10 *143:D 0
5 *26:10 *155:A2 0.000110429
6 *26:10 *37:16 6.70361e-05
7 *26:10 *38:14 0
8 *26:10 *40:25 8.62876e-05
9 *25:25 *26:10 2.60152e-05
*RES
1 *155:Y *26:10 48.9786 
2 *26:10 *156:B 38 
*END

*D_NET *27 0.000701384
*CONN
*I *157:A I *D sky130_fd_sc_hd__clkbuf_1
*I *156:X O *D sky130_fd_sc_hd__and2_1
*CAP
1 *157:A 4.9385e-05
2 *156:X 0.000200231
3 *27:10 0.000249616
4 *157:A *143:A 5.22991e-05
5 *27:10 *38:14 8.62783e-05
6 *24:8 *27:10 3.73896e-05
7 *24:12 *27:10 2.61849e-05
*RES
1 *156:X *27:10 41.48 
2 *27:10 *157:A 39.0979 
*END

*D_NET *28 0.0113894
*CONN
*I *153:B I *D sky130_fd_sc_hd__xor2_1
*I *143:D I *D sky130_fd_sc_hd__or4_2
*I *155:A2 I *D sky130_fd_sc_hd__o21ai_1
*I *154:C I *D sky130_fd_sc_hd__or3_1
*I *159:A I *D sky130_fd_sc_hd__clkbuf_1
*I *160:X O *D sky130_fd_sc_hd__dlymetal6s2s_1
*CAP
1 *153:B 9.4769e-05
2 *143:D 0.000476122
3 *155:A2 0.000259703
4 *154:C 0.000275398
5 *159:A 0
6 *160:X 6.80678e-05
7 *28:36 0.00098069
8 *28:23 0.000520262
9 *28:21 0.000446023
10 *28:12 0.00102095
11 *28:8 0.000737765
12 *143:D *143:A 0.000518494
13 *143:D *30:8 0.000262858
14 *143:D *36:12 6.78359e-05
15 *153:B *153:A 5.3304e-05
16 *153:B *31:6 0.000219383
17 *153:B *43:8 5.46873e-05
18 *154:C *35:8 3.59538e-05
19 *154:C *37:24 5.3304e-05
20 *154:C *40:25 0
21 *155:A2 *155:A1 0.000385463
22 *155:A2 *37:16 0.000136738
23 *28:12 *34:12 0.000129279
24 *28:12 *39:12 0.000999781
25 *28:21 *31:6 0.000616815
26 *28:21 *38:14 5.50106e-05
27 *28:21 *43:8 8.37777e-05
28 *158:A2 *28:21 0.000273267
29 *158:B1_N *28:12 0.000168754
30 *158:B1_N *28:21 0.000269714
31 *4:17 *28:12 0
32 *7:17 *28:12 0
33 *19:10 *143:D 5.3304e-05
34 *19:63 *28:12 0.00112954
35 *23:14 *143:D 9.03979e-05
36 *23:14 *154:C 0.000136775
37 *23:14 *28:36 0.000197946
38 *24:12 *28:12 0
39 *25:8 *154:C 0.000138718
40 *25:12 *153:B 4.08664e-05
41 *25:12 *28:21 0.000227208
42 *25:25 *143:D 0
43 *25:25 *28:36 0
44 *26:10 *143:D 0
45 *26:10 *155:A2 0.000110429
*RES
1 *160:X *28:8 39.0979 
2 *28:8 *28:12 37.6821 
3 *28:12 *159:A 23 
4 *28:12 *28:21 11.6 
5 *28:21 *28:23 15 
6 *28:23 *154:C 43.4893 
7 *28:23 *28:36 5.42714 
8 *28:36 *155:A2 43.8621 
9 *28:36 *143:D 49.2893 
10 *28:21 *153:B 25.5271 
*END

*D_NET *29 0.00383339
*CONN
*I *168:A I *D sky130_fd_sc_hd__buf_2
*I *153:X O *D sky130_fd_sc_hd__xor2_1
*CAP
1 *168:A 0
2 *153:X 0.000243622
3 *29:14 0.000820226
4 *29:8 0.00106385
5 *29:8 *31:6 0.00021677
6 *29:14 *31:14 0.000593242
7 *29:14 *33:12 0.000383256
8 *29:14 *43:12 0.00051243
*RES
1 *153:X *29:8 41.0036 
2 *29:8 *29:14 38.2 
3 *29:14 *168:A 23 
*END

*D_NET *30 0.0033379
*CONN
*I *169:A I *D sky130_fd_sc_hd__buf_2
*I *157:X O *D sky130_fd_sc_hd__clkbuf_1
*CAP
1 *169:A 0.000410636
2 *157:X 0.000449576
3 *30:8 0.000860213
4 *169:A *33:8 0.000218493
5 *169:A *37:8 2.64616e-05
6 *169:A *37:10 0.000290884
7 *169:A *37:16 0.000138718
8 *169:A *43:12 0
9 *30:8 *143:A 0.000195784
10 *143:D *30:8 0.000262858
11 *20:23 *169:A 0.000484273
*RES
1 *157:X *30:8 44.815 
2 *30:8 *169:A 49.8693 
*END

*D_NET *31 0.00444956
*CONN
*I *170:A I *D sky130_fd_sc_hd__buf_2
*I *158:Y O *D sky130_fd_sc_hd__a21boi_1
*CAP
1 *170:A 0
2 *158:Y 0.000675943
3 *31:14 0.000372948
4 *31:6 0.00104889
5 *31:6 *43:8 9.08509e-05
6 *31:14 *43:12 0.000614715
7 *153:B *31:6 0.000219383
8 *28:21 *31:6 0.000616815
9 *29:8 *31:6 0.00021677
10 *29:14 *31:14 0.000593242
*RES
1 *158:Y *31:6 36.0086 
2 *31:6 *31:14 40.295 
3 *31:14 *170:A 23 
*END

*D_NET *32 0.00448181
*CONN
*I *171:A I *D sky130_fd_sc_hd__buf_2
*I *146:Y O *D sky130_fd_sc_hd__nor2_1
*CAP
1 *171:A 0
2 *146:Y 0.000879846
3 *32:14 0.000549471
4 *32:6 0.00142932
5 *32:14 *39:34 4.67488e-05
6 *32:14 *41:19 0.000580598
7 *19:48 *32:14 5.25011e-05
8 *20:14 *32:6 0.000360503
9 *22:12 *32:14 0.000582829
*RES
1 *146:Y *32:6 35.5321 
2 *32:6 *32:14 42.8014 
3 *32:14 *171:A 23 
*END

*D_NET *33 0.00292472
*CONN
*I *172:A I *D sky130_fd_sc_hd__buf_2
*I *147:Y O *D sky130_fd_sc_hd__xnor2_1
*CAP
1 *172:A 0
2 *147:Y 0.000297835
3 *33:12 0.000838402
4 *33:8 0.00113624
5 *33:12 *43:12 0
6 out[2] *33:12 1.02561e-05
7 out[3] *33:12 2.74987e-05
8 out[4] *33:12 1.27424e-05
9 *169:A *33:8 0.000218493
10 *19:28 *33:12 0
11 *29:14 *33:12 0.000383256
*RES
1 *147:Y *33:8 42.4329 
2 *33:8 *33:12 33.8086 
3 *33:12 *172:A 23 
*END

*D_NET *34 0.00750124
*CONN
*I *173:A I *D sky130_fd_sc_hd__buf_2
*I *151:X O *D sky130_fd_sc_hd__clkbuf_1
*CAP
1 *173:A 0.000712385
2 *151:X 0.000319725
3 *34:12 0.00187194
4 *34:8 0.00147928
5 *173:A *40:14 0.000279828
6 *173:A *41:8 0.000256092
7 *173:A *41:19 5.67058e-05
8 *158:B1_N *34:12 7.91493e-05
9 *8:17 *34:12 0
10 *10:11 *34:12 3.92407e-05
11 *19:28 *173:A 3.98818e-05
12 *19:63 *34:12 0.000577837
13 *21:12 *34:12 0.00165991
14 *24:12 *34:12 0
15 *28:12 *34:12 0.000129279
*RES
1 *151:X *34:8 41.9564 
2 *34:8 *34:12 48.5986 
3 *34:12 *173:A 38.4114 
*END

*D_NET *35 0.00259731
*CONN
*I *174:A I *D sky130_fd_sc_hd__clkbuf_4
*I *152:X O *D sky130_fd_sc_hd__xor2_1
*CAP
1 *174:A 0.000418593
2 *152:X 0.000550703
3 *35:8 0.000969296
4 *174:A *41:19 0
5 *35:8 *37:24 0.000261951
6 out[5] *174:A 4.32584e-05
7 *154:C *35:8 3.59538e-05
8 *19:28 *174:A 0
9 *23:14 *35:8 0.000317553
*RES
1 *152:X *35:8 48.15 
2 *35:8 *174:A 46.2443 
*END

*D_NET *36 0.00757413
*CONN
*I *143:C I *D sky130_fd_sc_hd__or4_2
*I *155:A1 I *D sky130_fd_sc_hd__o21ai_1
*I *153:A I *D sky130_fd_sc_hd__xor2_1
*I *154:B I *D sky130_fd_sc_hd__or3_1
*I *161:X O *D sky130_fd_sc_hd__buf_1
*CAP
1 *143:C 0.000190588
2 *155:A1 0.000331698
3 *153:A 2.32701e-05
4 *154:B 0.000111538
5 *161:X 0.000742406
6 *36:14 0.00028322
7 *36:12 0.000706995
8 *36:10 0.000752174
9 *36:6 0.00107711
10 *143:C *143:A 0.000433246
11 *143:C *143:B 0.000125488
12 *153:A *43:8 5.3304e-05
13 *154:B *39:25 0.000271392
14 *154:B *40:25 0
15 *36:10 *40:31 0.000410369
16 *36:10 *43:12 0
17 *36:12 *40:31 0.000293776
18 *36:14 *39:25 0.000296947
19 *143:D *36:12 6.78359e-05
20 *153:B *153:A 5.3304e-05
21 *155:A2 *155:A1 0.000385463
22 *20:23 *36:10 1.47563e-05
23 *20:23 *36:12 8.57661e-05
24 *20:23 *36:14 4.85126e-05
25 *23:14 *154:B 0.000218962
26 *23:14 *36:12 0.000204337
27 *23:14 *36:14 0.000391672
*RES
1 *161:X *36:6 35.0557 
2 *36:6 *36:10 22.8921 
3 *36:10 *36:12 6.48357 
4 *36:12 *36:14 5.42714 
5 *36:14 *154:B 41.6664 
6 *36:14 *153:A 38.6214 
7 *36:12 *155:A1 43.4064 
8 *36:10 *143:C 42.9093 
*END

*D_NET *37 0.00678565
*CONN
*I *143:B I *D sky130_fd_sc_hd__or4_2
*I *155:B1 I *D sky130_fd_sc_hd__o21ai_1
*I *154:A I *D sky130_fd_sc_hd__or3_1
*I *162:X O *D sky130_fd_sc_hd__buf_1
*CAP
1 *143:B 0.000166989
2 *155:B1 0
3 *154:A 0
4 *162:X 0.00095245
5 *37:24 0.000410891
6 *37:16 0.000722302
7 *37:10 0.00063732
8 *37:8 0.00111137
9 *37:10 *43:12 0
10 *37:16 *149:A 1.47563e-05
11 *37:16 *41:19 0.000187996
12 *37:16 *43:12 0
13 *37:24 *144:A 0.000296017
14 *37:24 *149:A 0.000161121
15 *37:24 *41:19 0.000101564
16 *143:C *143:B 0.000125488
17 *154:C *37:24 5.3304e-05
18 *155:A2 *37:16 0.000136738
19 *169:A *37:8 2.64616e-05
20 *169:A *37:10 0.000290884
21 *169:A *37:16 0.000138718
22 *19:10 *37:16 0
23 *19:12 *37:24 0.000286812
24 *19:14 *37:24 0.000151898
25 *19:28 *37:24 0.000218952
26 *20:23 *37:16 7.44146e-05
27 *22:12 *37:16 0.000190218
28 *26:10 *37:16 6.70361e-05
29 *35:8 *37:24 0.000261951
*RES
1 *162:X *37:8 49.5793 
2 *37:8 *37:10 4.01857 
3 *37:10 *37:16 23.0579 
4 *37:16 *37:24 41.9521 
5 *37:24 *154:A 23 
6 *37:16 *155:B1 23 
7 *37:10 *143:B 40.5271 
*END

*D_NET *38 0.00473306
*CONN
*I *143:A I *D sky130_fd_sc_hd__or4_2
*I *158:A1 I *D sky130_fd_sc_hd__a21boi_1
*I *163:X O *D sky130_fd_sc_hd__clkbuf_1
*CAP
1 *143:A 0.00058847
2 *158:A1 0
3 *163:X 0.000387783
4 *38:14 0.00056103
5 *38:6 0.00153728
6 *38:14 *40:25 0
7 *38:14 *43:8 5.67058e-05
8 *143:C *143:A 0.000433246
9 *143:D *143:A 0.000518494
10 *157:A *143:A 5.22991e-05
11 *19:10 *143:A 6.82611e-05
12 *24:12 *38:14 0.000192413
13 *26:10 *38:14 0
14 *27:10 *38:14 8.62783e-05
15 *28:21 *38:14 5.50106e-05
16 *30:8 *143:A 0.000195784
*RES
1 *163:X *38:6 27.4329 
2 *38:6 *38:14 41.3307 
3 *38:14 *158:A1 23 
4 *38:6 *143:A 37.4793 
*END

*D_NET *39 0.00911674
*CONN
*I *149:A I *D sky130_fd_sc_hd__or4_1
*I *144:A I *D sky130_fd_sc_hd__nor2_1
*I *148:A1 I *D sky130_fd_sc_hd__o31a_1
*I *145:A I *D sky130_fd_sc_hd__and2_1
*I *164:X O *D sky130_fd_sc_hd__buf_1
*CAP
1 *149:A 0.000167189
2 *144:A 0.000107879
3 *148:A1 0
4 *145:A 0
5 *164:X 0
6 *39:34 0.000501031
7 *39:25 0.00054547
8 *39:19 0.00178353
9 *39:12 0.000583931
10 *39:4 0.00159603
11 *144:A *41:19 0.000296017
12 *149:A *41:19 0.000329759
13 *39:25 *40:14 0
14 *39:25 *41:19 0
15 *154:B *39:25 0.000271392
16 *5:15 *39:12 0
17 *6:17 *39:12 0
18 *7:17 *39:12 7.53384e-06
19 *19:12 *149:A 9.95114e-05
20 *19:28 *39:25 1.75666e-05
21 *19:48 *39:12 8.91468e-07
22 *19:48 *39:19 0.000101334
23 *19:48 *39:34 7.89586e-06
24 *20:14 *39:25 0.0003731
25 *20:23 *39:25 0.000337002
26 *22:12 *39:25 0.000174314
27 *28:12 *39:12 0.000999781
28 *32:14 *39:34 4.67488e-05
29 *36:14 *39:25 0.000296947
30 *37:16 *149:A 1.47563e-05
31 *37:24 *144:A 0.000296017
32 *37:24 *149:A 0.000161121
*RES
1 *164:X *39:4 23 
2 *39:4 *39:12 44.2721 
3 *39:12 *145:A 23 
4 *39:4 *39:19 12.5321 
5 *39:19 *39:25 45.2871 
6 *39:25 *148:A1 23 
7 *39:19 *39:34 17.5271 
8 *39:34 *144:A 42.0186 
9 *39:34 *149:A 43.075 
*END

*D_NET *40 0.00866705
*CONN
*I *149:B I *D sky130_fd_sc_hd__or4_1
*I *147:A I *D sky130_fd_sc_hd__xnor2_1
*I *148:A2 I *D sky130_fd_sc_hd__o31a_1
*I *165:X O *D sky130_fd_sc_hd__buf_1
*CAP
1 *149:B 0.00020362
2 *147:A 0
3 *148:A2 0
4 *165:X 0.000632479
5 *40:31 0.00022543
6 *40:25 0.00126711
7 *40:14 0.000406979
8 *40:8 0.00187752
9 *149:B *149:C 2.64616e-05
10 *40:8 *152:A 1.59071e-05
11 *40:14 *152:A 0.000509837
12 *40:14 *41:8 0.000487153
13 *40:25 *152:A 7.70737e-05
14 *154:B *40:25 0
15 *154:C *40:25 0
16 *173:A *40:14 0.000279828
17 *20:23 *40:31 0.000694002
18 *23:6 *149:B 0.000135037
19 *23:6 *40:25 9.41704e-05
20 *23:14 *40:8 4.96207e-05
21 *23:14 *40:25 0
22 *24:8 *40:25 0.000310647
23 *25:25 *40:25 0.00058374
24 *26:10 *40:25 8.62876e-05
25 *36:10 *40:31 0.000410369
26 *36:12 *40:31 0.000293776
27 *38:14 *40:25 0
28 *39:25 *40:14 0
*RES
1 *165:X *40:8 45.7679 
2 *40:8 *40:14 27.9257 
3 *40:14 *148:A2 23 
4 *40:8 *40:25 31.3229 
5 *40:25 *40:31 39.3007 
6 *40:31 *147:A 23 
7 *40:25 *149:B 25.5271 
*END

*D_NET *41 0.00604476
*CONN
*I *149:C I *D sky130_fd_sc_hd__or4_1
*I *148:B1 I *D sky130_fd_sc_hd__o31a_1
*I *166:X O *D sky130_fd_sc_hd__clkbuf_1
*CAP
1 *149:C 7.15758e-05
2 *148:B1 0
3 *166:X 0.00048697
4 *41:19 0.000722271
5 *41:8 0.00113766
6 *41:8 *42:8 0.000544172
7 *144:A *41:19 0.000296017
8 *149:A *41:19 0.000329759
9 *149:B *149:C 2.64616e-05
10 *173:A *41:8 0.000256092
11 *173:A *41:19 5.67058e-05
12 *174:A *41:19 0
13 *19:28 *41:8 1.24376e-05
14 *19:28 *41:19 0.000256096
15 *22:8 *41:8 0.000182826
16 *22:12 *41:19 0.000308408
17 *32:14 *41:19 0.000580598
18 *37:16 *41:19 0.000187996
19 *37:24 *41:19 0.000101564
20 *39:25 *41:19 0
21 *40:14 *41:8 0.000487153
*RES
1 *166:X *41:8 37.8107 
2 *41:8 *148:B1 23 
3 *41:8 *41:19 35.4864 
4 *41:19 *149:C 39.0979 
*END

*D_NET *42 0.00265502
*CONN
*I *152:A I *D sky130_fd_sc_hd__xor2_1
*I *167:X O *D sky130_fd_sc_hd__clkbuf_1
*CAP
1 *152:A 0.000377016
2 *167:X 0.000349187
3 *42:8 0.000726203
4 *23:14 *152:A 5.56279e-05
5 *40:8 *152:A 1.59071e-05
6 *40:14 *152:A 0.000509837
7 *40:25 *152:A 7.70737e-05
8 *41:8 *42:8 0.000544172
*RES
1 *167:X *42:8 43.8621 
2 *42:8 *152:A 46.99 
*END

*D_NET *43 0.00668462
*CONN
*I *175:A I *D sky130_fd_sc_hd__buf_2
*I *159:X O *D sky130_fd_sc_hd__clkbuf_1
*CAP
1 *175:A 4.24211e-05
2 *159:X 0.000817345
3 *43:12 0.000877384
4 *43:8 0.00165231
5 *153:A *43:8 5.3304e-05
6 *153:B *43:8 5.46873e-05
7 *158:A2 *43:8 0.000274974
8 *158:B1_N *43:8 0.000227935
9 *169:A *43:12 0
10 *19:10 *43:12 0.000139647
11 *19:12 *43:12 0.000509855
12 *19:14 *43:12 0.000163343
13 *19:28 *43:12 3.70187e-05
14 *20:8 *43:8 0.000219383
15 *20:23 *43:12 0
16 *25:12 *43:8 0.000256538
17 *28:21 *43:8 8.37777e-05
18 *29:14 *43:12 0.00051243
19 *31:6 *43:8 9.08509e-05
20 *31:14 *43:12 0.000614715
21 *33:12 *43:12 0
22 *36:10 *43:12 0
23 *37:10 *43:12 0
24 *37:16 *43:12 0
25 *38:14 *43:8 5.67058e-05
*RES
1 *159:X *43:8 39.3643 
2 *43:8 *43:12 38.0343 
3 *43:12 *175:A 38.6214 
*END
