*SPEF "ieee 1481-1999"
*DESIGN "twos_complement"
*DATE "20:28:34 Friday April 25, 2025"
*VENDOR "The OpenROAD Project"
*PROGRAM "OpenROAD"
*VERSION "b16bda7e82721d10566ff7e2b68f1ff0be9f9e38"
*DESIGN_FLOW "NAME_SCOPE LOCAL" "PIN_CAP NONE"
*DIVIDER /
*DELIMITER :
*BUS_DELIMITER []
*T_UNIT 1 NS
*C_UNIT 1 PF
*R_UNIT 1 OHM
*L_UNIT 1 HENRY

*NAME_MAP
*3 in[0]
*4 in[1]
*5 in[2]
*6 in[3]
*7 in[4]
*8 in[5]
*9 in[6]
*10 in[7]
*11 out[0]
*12 out[1]
*13 out[2]
*14 out[3]
*15 out[4]
*16 out[5]
*17 out[6]
*18 out[7]
*19 _00_
*20 _01_
*21 _02_
*22 _03_
*23 _04_
*24 _05_
*25 _06_
*26 _07_
*27 _08_
*28 net1
*29 net10
*30 net11
*31 net12
*32 net13
*33 net14
*34 net15
*35 net16
*36 net2
*37 net3
*38 net4
*39 net5
*40 net6
*41 net7
*42 net8
*43 net9
*44 FILLER_0_0_21
*45 FILLER_0_0_27
*46 FILLER_0_0_36
*47 FILLER_0_0_9
*48 FILLER_0_10_11
*49 FILLER_0_10_23
*50 FILLER_0_10_27
*51 FILLER_0_10_36
*52 FILLER_0_11_18
*53 FILLER_0_11_30
*54 FILLER_0_11_42
*55 FILLER_0_11_6
*56 FILLER_0_12_16
*57 FILLER_0_12_29
*58 FILLER_0_12_37
*59 FILLER_0_1_15
*60 FILLER_0_1_27
*61 FILLER_0_1_3
*62 FILLER_0_1_39
*63 FILLER_0_1_47
*64 FILLER_0_2_11
*65 FILLER_0_2_23
*66 FILLER_0_2_27
*67 FILLER_0_2_29
*68 FILLER_0_2_3
*69 FILLER_0_2_41
*70 FILLER_0_2_47
*71 FILLER_0_2_7
*72 FILLER_0_3_14
*73 FILLER_0_3_23
*74 FILLER_0_3_27
*75 FILLER_0_3_33
*76 FILLER_0_3_41
*77 FILLER_0_3_6
*78 FILLER_0_4_17
*79 FILLER_0_4_25
*80 FILLER_0_4_3
*81 FILLER_0_4_39
*82 FILLER_0_4_47
*83 FILLER_0_4_7
*84 FILLER_0_5_18
*85 FILLER_0_5_30
*86 FILLER_0_5_42
*87 FILLER_0_5_6
*88 FILLER_0_6_15
*89 FILLER_0_6_27
*90 FILLER_0_6_29
*91 FILLER_0_6_3
*92 FILLER_0_6_41
*93 FILLER_0_6_47
*94 FILLER_0_7_15
*95 FILLER_0_7_23
*96 FILLER_0_7_27
*97 FILLER_0_7_3
*98 FILLER_0_7_40
*99 FILLER_0_8_14
*100 FILLER_0_8_20
*101 FILLER_0_8_29
*102 FILLER_0_8_37
*103 FILLER_0_8_46
*104 FILLER_0_8_6
*105 FILLER_0_9_15
*106 FILLER_0_9_27
*107 FILLER_0_9_3
*108 FILLER_0_9_39
*109 FILLER_0_9_47
*110 PHY_EDGE_ROW_0_Left_13
*111 PHY_EDGE_ROW_0_Right_0
*112 PHY_EDGE_ROW_10_Left_23
*113 PHY_EDGE_ROW_10_Right_10
*114 PHY_EDGE_ROW_11_Left_24
*115 PHY_EDGE_ROW_11_Right_11
*116 PHY_EDGE_ROW_12_Left_25
*117 PHY_EDGE_ROW_12_Right_12
*118 PHY_EDGE_ROW_1_Left_14
*119 PHY_EDGE_ROW_1_Right_1
*120 PHY_EDGE_ROW_2_Left_15
*121 PHY_EDGE_ROW_2_Right_2
*122 PHY_EDGE_ROW_3_Left_16
*123 PHY_EDGE_ROW_3_Right_3
*124 PHY_EDGE_ROW_4_Left_17
*125 PHY_EDGE_ROW_4_Right_4
*126 PHY_EDGE_ROW_5_Left_18
*127 PHY_EDGE_ROW_5_Right_5
*128 PHY_EDGE_ROW_6_Left_19
*129 PHY_EDGE_ROW_6_Right_6
*130 PHY_EDGE_ROW_7_Left_20
*131 PHY_EDGE_ROW_7_Right_7
*132 PHY_EDGE_ROW_8_Left_21
*133 PHY_EDGE_ROW_8_Right_8
*134 PHY_EDGE_ROW_9_Left_22
*135 PHY_EDGE_ROW_9_Right_9
*136 TAP_TAPCELL_ROW_0_26
*137 TAP_TAPCELL_ROW_10_31
*138 TAP_TAPCELL_ROW_12_32
*139 TAP_TAPCELL_ROW_2_27
*140 TAP_TAPCELL_ROW_4_28
*141 TAP_TAPCELL_ROW_6_29
*142 TAP_TAPCELL_ROW_8_30
*143 _09_
*144 _10_
*145 _11_
*146 _12_
*147 _13_
*148 _14_
*149 _15_
*150 _16_
*151 _17_
*152 _18_
*153 _19_
*154 _20_
*155 _21_
*156 _22_
*157 _23_
*158 _24_
*159 _25_
*160 input1
*161 input2
*162 input3
*163 input4
*164 input5
*165 input6
*166 input7
*167 input8
*168 output10
*169 output11
*170 output12
*171 output13
*172 output14
*173 output15
*174 output16
*175 output9

*PORTS
in[0] I
in[1] I
in[2] I
in[3] I
in[4] I
in[5] I
in[6] I
in[7] I
out[0] O
out[1] O
out[2] O
out[3] O
out[4] O
out[5] O
out[6] O
out[7] O

*D_NET *3 0.00105377
*CONN
*P in[0] I
*I *160:A I *D sky130_fd_sc_hd__dlymetal6s2s_1
*CAP
1 in[0] 0.000526885
2 *160:A 0.000526885
3 *160:A *161:A 0
*RES
1 in[0] *160:A 24.1943 
*END

*D_NET *4 0.00075981
*CONN
*P in[1] I
*I *161:A I *D sky130_fd_sc_hd__buf_1
*CAP
1 in[1] 0.000379905
2 *161:A 0.000379905
3 *161:A *162:A 0
4 *161:A *28:12 0
5 *160:A *161:A 0
*RES
1 in[1] *161:A 22.3017 
*END

*D_NET *5 0.00093686
*CONN
*P in[2] I
*I *162:A I *D sky130_fd_sc_hd__buf_1
*CAP
1 in[2] 0.00044178
2 *162:A 0.00044178
3 *162:A *145:A 0
4 *162:A *146:B 5.33005e-05
5 *162:A *163:A 0
6 *161:A *162:A 0
*RES
1 in[2] *162:A 22.3882 
*END

*D_NET *6 0.000705495
*CONN
*P in[3] I
*I *163:A I *D sky130_fd_sc_hd__clkbuf_1
*CAP
1 in[3] 0.000352747
2 *163:A 0.000352747
3 *163:A *145:A 0
4 *163:A *164:A 0
5 *162:A *163:A 0
*RES
1 in[3] *163:A 21.6946 
*END

*D_NET *7 0.000607221
*CONN
*P in[4] I
*I *164:A I *D sky130_fd_sc_hd__buf_1
*CAP
1 in[4] 0.000299893
2 *164:A 0.000299893
3 *164:A *145:A 7.43578e-06
4 *164:A *165:A 0
5 *164:A *28:12 0
6 *163:A *164:A 0
*RES
1 in[4] *164:A 20.7838 
*END

*D_NET *8 0.000715317
*CONN
*P in[5] I
*I *165:A I *D sky130_fd_sc_hd__buf_1
*CAP
1 in[5] 0.000357659
2 *165:A 0.000357659
3 *165:A *166:A 0
4 *165:A *34:10 0
5 *164:A *165:A 0
*RES
1 in[5] *165:A 21.9981 
*END

*D_NET *9 0.000563768
*CONN
*P in[6] I
*I *166:A I *D sky130_fd_sc_hd__clkbuf_1
*CAP
1 in[6] 0.000281884
2 *166:A 0.000281884
3 *166:A *167:A 0
4 *165:A *166:A 0
*RES
1 in[6] *166:A 20.4803 
*END

*D_NET *10 0.00125107
*CONN
*P in[7] I
*I *167:A I *D sky130_fd_sc_hd__clkbuf_1
*CAP
1 in[7] 0.000607962
2 *167:A 0.000607962
3 *167:A *34:10 3.51442e-05
4 *166:A *167:A 0
*RES
1 in[7] *167:A 25.0176 
*END

*D_NET *11 0.00116601
*CONN
*P out[0] O
*I *175:X O *D sky130_fd_sc_hd__buf_2
*CAP
1 out[0] 0.000583005
2 *175:X 0.000583005
3 out[0] out[1] 0
*RES
1 *175:X out[0] 23.8754 
*END

*D_NET *12 0.000438356
*CONN
*P out[1] O
*I *168:X O *D sky130_fd_sc_hd__buf_2
*CAP
1 out[1] 0.000219178
2 *168:X 0.000219178
3 out[1] out[2] 0
4 out[0] out[1] 0
*RES
1 *168:X out[1] 18.1229 
*END

*D_NET *13 0.000444096
*CONN
*P out[2] O
*I *169:X O *D sky130_fd_sc_hd__buf_2
*CAP
1 out[2] 0.000217108
2 *169:X 0.000217108
3 out[2] out[3] 0
4 out[2] *172:A 9.87983e-06
5 out[1] out[2] 0
*RES
1 *169:X out[2] 18.1229 
*END

*D_NET *14 0.000474642
*CONN
*P out[3] O
*I *170:X O *D sky130_fd_sc_hd__buf_2
*CAP
1 out[3] 0.000224172
2 *170:X 0.000224172
3 out[3] out[4] 0
4 out[3] *172:A 2.62984e-05
5 out[2] out[3] 0
*RES
1 *170:X out[3] 18.4264 
*END

*D_NET *15 0.000440675
*CONN
*P out[4] O
*I *171:X O *D sky130_fd_sc_hd__buf_2
*CAP
1 out[4] 0.00021424
2 *171:X 0.00021424
3 out[4] out[5] 0
4 out[4] *172:A 1.21955e-05
5 out[3] out[4] 0
*RES
1 *171:X out[4] 18.1229 
*END

*D_NET *16 0.000586236
*CONN
*P out[5] O
*I *172:X O *D sky130_fd_sc_hd__buf_2
*CAP
1 out[5] 0.000271635
2 *172:X 0.000271635
3 out[5] out[6] 0
4 out[5] *174:A 4.29654e-05
5 out[4] out[5] 0
*RES
1 *172:X out[5] 19.3371 
*END

*D_NET *17 0.000760908
*CONN
*P out[6] O
*I *173:X O *D sky130_fd_sc_hd__buf_2
*CAP
1 out[6] 0.000380454
2 *173:X 0.000380454
3 out[6] out[7] 0
4 out[5] out[6] 0
*RES
1 *173:X out[6] 18.5553 
*END

*D_NET *18 0.00103775
*CONN
*P out[7] O
*I *174:X O *D sky130_fd_sc_hd__clkbuf_4
*CAP
1 out[7] 0.000518877
2 *174:X 0.000518877
3 out[6] out[7] 0
*RES
1 *174:X out[7] 24.4258 
*END

*D_NET *19 0.00978363
*CONN
*I *149:D I *D sky130_fd_sc_hd__or4_1
*I *145:B I *D sky130_fd_sc_hd__and2_1
*I *158:B1_N I *D sky130_fd_sc_hd__a21boi_1
*I *144:B I *D sky130_fd_sc_hd__nor2_1
*I *148:A3 I *D sky130_fd_sc_hd__o31a_1
*I *143:X O *D sky130_fd_sc_hd__or4_2
*CAP
1 *149:D 4.26984e-05
2 *145:B 0.000274692
3 *158:B1_N 0.000116938
4 *144:B 0
5 *148:A3 0.000573286
6 *143:X 0.000276987
7 *19:48 0.00162025
8 *19:14 0.00062473
9 *19:12 0.00142402
10 *19:10 0.000463638
11 *145:B *28:12 0.00101643
12 *145:B *34:10 0.000553419
13 *148:A3 *148:A1 1.73501e-05
14 *148:A3 *149:C 0.000249904
15 *148:A3 *150:A_N 9.25014e-06
16 *148:A3 *154:A 0.000197984
17 *148:A3 *172:A 0
18 *148:A3 *173:A 3.97657e-05
19 *148:A3 *174:A 0
20 *148:A3 *41:8 1.24368e-05
21 *148:A3 *43:12 3.34366e-05
22 *158:B1_N *28:12 0.00015234
23 *158:B1_N *28:21 0.000267281
24 *158:B1_N *34:10 7.6021e-05
25 *158:B1_N *43:12 0.000225385
26 *19:10 *143:A 6.71854e-05
27 *19:10 *143:D 5.33005e-05
28 *19:10 *37:16 0
29 *19:10 *43:12 0.000126439
30 *19:12 *149:A 9.55563e-05
31 *19:12 *154:A 0.000259278
32 *19:12 *43:12 0.000460406
33 *19:14 *154:A 0.000137931
34 *19:14 *43:12 0.000148182
35 *19:48 *145:A 9.33978e-07
36 *19:48 *171:A 5.21937e-05
37 *19:48 *39:19 0.000105709
38 *19:48 *39:34 8.27238e-06
*RES
1 *143:X *19:10 18.0321 
2 *19:10 *19:12 5.89286 
3 *19:12 *19:14 1.94643 
4 *19:14 *148:A3 34.8893 
5 *19:14 *144:B 13.8 
6 *19:12 *19:48 22.6786 
7 *19:48 *158:B1_N 18.3357 
8 *19:48 *145:B 26.675 
9 *19:10 *149:D 14.3357 
*END

*D_NET *20 0.00563511
*CONN
*I *147:B I *D sky130_fd_sc_hd__xnor2_1
*I *146:A I *D sky130_fd_sc_hd__nor2_1
*I *144:Y O *D sky130_fd_sc_hd__nor2_1
*CAP
1 *147:B 0.00038678
2 *146:A 0.000534424
3 *144:Y 0.000170609
4 *20:8 0.00109181
5 *146:A *148:A1 0.000337644
6 *146:A *150:A_N 0.000335922
7 *146:A *171:A 0.000358046
8 *147:B *147:A 0.000626653
9 *147:B *148:A1 0.000304915
10 *147:B *150:A_N 0.000616951
11 *147:B *169:A 0.000437212
12 *147:B *36:10 1.41029e-05
13 *147:B *36:12 8.2395e-05
14 *147:B *36:14 4.66203e-05
15 *147:B *37:16 7.13154e-05
16 *147:B *43:12 0
17 *20:8 *43:12 0.000219711
*RES
1 *144:Y *20:8 15.9786 
2 *20:8 *146:A 27.3357 
3 *20:8 *147:B 29.4071 
*END

*D_NET *21 0.00312118
*CONN
*I *146:B I *D sky130_fd_sc_hd__nor2_1
*I *145:X O *D sky130_fd_sc_hd__and2_1
*CAP
1 *146:B 0.000785872
2 *145:X 0.000785872
3 *146:B *34:10 0.00149614
4 *162:A *146:B 5.33005e-05
*RES
1 *145:X *146:B 47.0821 
*END

*D_NET *22 0.00338866
*CONN
*I *150:A_N I *D sky130_fd_sc_hd__and2b_1
*I *148:X O *D sky130_fd_sc_hd__o31a_1
*CAP
1 *150:A_N 0.000540385
2 *148:X 0.000540385
3 *150:A_N *148:A1 0.000167022
4 *150:A_N *149:C 0.000295569
5 *150:A_N *171:A 0.000527085
6 *150:A_N *37:16 0.000172368
7 *150:A_N *41:8 0.00018372
8 *146:A *150:A_N 0.000335922
9 *147:B *150:A_N 0.000616951
10 *148:A3 *150:A_N 9.25014e-06
*RES
1 *148:X *150:A_N 45.5821 
*END

*D_NET *23 0.00299688
*CONN
*I *150:B I *D sky130_fd_sc_hd__and2b_1
*I *152:B I *D sky130_fd_sc_hd__xor2_1
*I *149:X O *D sky130_fd_sc_hd__or4_1
*CAP
1 *150:B 0
2 *152:B 0.000414842
3 *149:X 0.000119598
4 *23:6 0.00053444
5 *152:B *143:D 8.68569e-05
6 *152:B *152:A 5.49489e-05
7 *152:B *154:B 0.000197991
8 *152:B *154:C 0.000135782
9 *152:B *174:A 0.000320024
10 *152:B *25:12 0.000125724
11 *152:B *28:36 0.000189898
12 *152:B *36:12 0.000185297
13 *152:B *36:14 0.000353995
14 *152:B *40:8 4.82865e-05
15 *152:B *40:25 0
16 *23:6 *149:B 0.000135028
17 *23:6 *40:25 9.41642e-05
*RES
1 *149:X *23:6 11.4786 
2 *23:6 *152:B 32.0679 
3 *23:6 *150:B 9.3 
*END

*D_NET *24 0.00257152
*CONN
*I *151:A I *D sky130_fd_sc_hd__clkbuf_1
*I *150:X O *D sky130_fd_sc_hd__and2b_1
*CAP
1 *151:A 0.00101122
2 *150:X 0.00101122
3 *151:A *157:A 6.40477e-05
4 *151:A *158:A1 0.000172815
5 *151:A *28:12 0
6 *151:A *34:10 0
7 *151:A *40:25 0.000312215
*RES
1 *150:X *151:A 46.4571 
*END

*D_NET *25 0.00276498
*CONN
*I *156:A I *D sky130_fd_sc_hd__and2_1
*I *158:A2 I *D sky130_fd_sc_hd__a21boi_1
*I *154:X O *D sky130_fd_sc_hd__or3_1
*CAP
1 *156:A 0.000313294
2 *158:A2 4.43768e-05
3 *154:X 8.82545e-05
4 *25:12 0.000445925
5 *156:A *143:D 0
6 *156:A *156:B 2.49484e-05
7 *156:A *28:36 0
8 *156:A *40:25 0.000527785
9 *158:A2 *28:21 0.000269795
10 *158:A2 *43:12 0.000271725
11 *25:12 *153:B 4.08637e-05
12 *25:12 *154:C 0.000125724
13 *25:12 *28:21 0.000228558
14 *25:12 *43:12 0.000258005
15 *152:B *25:12 0.000125724
*RES
1 *154:X *25:12 22.5321 
2 *25:12 *158:A2 11.8893 
3 *25:12 *156:A 25.7107 
*END

*D_NET *26 0.00177929
*CONN
*I *156:B I *D sky130_fd_sc_hd__and2_1
*I *155:Y O *D sky130_fd_sc_hd__o21ai_1
*CAP
1 *156:B 0.000750383
2 *155:Y 0.000750383
3 *156:B *143:D 0
4 *156:B *155:A2 0.000109507
5 *156:B *158:A1 0
6 *156:B *37:16 6.57032e-05
7 *156:B *40:25 7.83659e-05
8 *156:A *156:B 2.49484e-05
*RES
1 *155:Y *156:B 37.0643 
*END

*D_NET *27 0.00063663
*CONN
*I *157:A I *D sky130_fd_sc_hd__clkbuf_1
*I *156:X O *D sky130_fd_sc_hd__and2_1
*CAP
1 *157:A 0.000221756
2 *156:X 0.000221756
3 *157:A *143:A 5.07121e-05
4 *157:A *158:A1 7.83587e-05
5 *151:A *157:A 6.40477e-05
*RES
1 *156:X *157:A 31.5464 
*END

*D_NET *28 0.0103221
*CONN
*I *153:B I *D sky130_fd_sc_hd__xor2_1
*I *143:D I *D sky130_fd_sc_hd__or4_2
*I *155:A2 I *D sky130_fd_sc_hd__o21ai_1
*I *154:C I *D sky130_fd_sc_hd__or3_1
*I *159:A I *D sky130_fd_sc_hd__clkbuf_1
*I *160:X O *D sky130_fd_sc_hd__dlymetal6s2s_1
*CAP
1 *153:B 7.00817e-05
2 *143:D 0.000396804
3 *155:A2 0.000204251
4 *154:C 0.000228822
5 *159:A 0
6 *160:X 0.00062722
7 *28:36 0.000808467
8 *28:23 0.000436235
9 *28:21 0.000374245
10 *28:12 0.000931383
11 *143:D *143:A 0.000520509
12 *143:D *169:A 0.000263524
13 *143:D *36:12 6.76178e-05
14 *153:B *153:A 5.33005e-05
15 *153:B *170:A 0.000219711
16 *153:B *43:12 5.36e-05
17 *154:C *154:A 5.33005e-05
18 *154:C *174:A 3.5298e-05
19 *154:C *40:25 0
20 *155:A2 *155:A1 0.000386121
21 *155:A2 *37:16 0.000136951
22 *28:12 *145:A 0.000900506
23 *28:12 *34:10 0.000127852
24 *28:21 *158:A1 5.52302e-05
25 *28:21 *170:A 0.00061399
26 *28:21 *43:12 8.07884e-05
27 *145:B *28:12 0.00101643
28 *151:A *28:12 0
29 *152:B *143:D 8.68569e-05
30 *152:B *154:C 0.000135782
31 *152:B *28:36 0.000189898
32 *156:A *143:D 0
33 *156:A *28:36 0
34 *156:B *143:D 0
35 *156:B *155:A2 0.000109507
36 *158:A2 *28:21 0.000269795
37 *158:B1_N *28:12 0.00015234
38 *158:B1_N *28:21 0.000267281
39 *161:A *28:12 0
40 *164:A *28:12 0
41 *19:10 *143:D 5.33005e-05
42 *25:12 *153:B 4.08637e-05
43 *25:12 *154:C 0.000125724
44 *25:12 *28:21 0.000228558
*RES
1 *160:X *28:12 38.8 
2 *28:12 *159:A 9.3 
3 *28:12 *28:21 10 
4 *28:21 *28:23 4.5 
5 *28:23 *154:C 18.5321 
6 *28:23 *28:36 4.67857 
7 *28:36 *155:A2 18.8536 
8 *28:36 *143:D 23.5321 
9 *28:21 *153:B 11.4786 
*END

*D_NET *29 0.00342868
*CONN
*I *168:A I *D sky130_fd_sc_hd__buf_2
*I *153:X O *D sky130_fd_sc_hd__xor2_1
*CAP
1 *168:A 0
2 *153:X 0.000902493
3 *29:14 0.000902493
4 *29:14 *170:A 0.000751842
5 *29:14 *172:A 0.000380575
6 *29:14 *43:12 0.000491274
*RES
1 *153:X *29:14 40.8893 
2 *29:14 *168:A 9.3 
*END

*D_NET *30 0.00306021
*CONN
*I *169:A I *D sky130_fd_sc_hd__buf_2
*I *157:X O *D sky130_fd_sc_hd__clkbuf_1
*CAP
1 *169:A 0.000768633
2 *157:X 0.000768633
3 *169:A *143:A 0.000192861
4 *169:A *172:A 0.00021528
5 *169:A *37:10 0.000288343
6 *169:A *37:16 0.000125724
7 *169:A *43:12 0
8 *143:D *169:A 0.000263524
9 *147:B *169:A 0.000437212
*RES
1 *157:X *169:A 43.7071 
*END

*D_NET *31 0.00398746
*CONN
*I *170:A I *D sky130_fd_sc_hd__buf_2
*I *158:Y O *D sky130_fd_sc_hd__a21boi_1
*CAP
1 *170:A 0.000878297
2 *158:Y 0.000878297
3 *170:A *43:12 0.000645324
4 *153:B *170:A 0.000219711
5 *28:21 *170:A 0.00061399
6 *29:14 *170:A 0.000751842
*RES
1 *158:Y *170:A 47.6893 
*END

*D_NET *32 0.00405529
*CONN
*I *171:A I *D sky130_fd_sc_hd__buf_2
*I *146:Y O *D sky130_fd_sc_hd__nor2_1
*CAP
1 *171:A 0.00127339
2 *146:Y 0.00127339
3 *171:A *149:C 0.00052537
4 *171:A *39:34 4.58194e-05
5 *146:A *171:A 0.000358046
6 *150:A_N *171:A 0.000527085
7 *19:48 *171:A 5.21937e-05
*RES
1 *146:Y *171:A 49.4393 
*END

*D_NET *33 0.00267117
*CONN
*I *172:A I *D sky130_fd_sc_hd__buf_2
*I *147:Y O *D sky130_fd_sc_hd__xnor2_1
*CAP
1 *172:A 0.00101347
2 *147:Y 0.00101347
3 *172:A *43:12 0
4 out[2] *172:A 9.87983e-06
5 out[3] *172:A 2.62984e-05
6 out[4] *172:A 1.21955e-05
7 *148:A3 *172:A 0
8 *169:A *172:A 0.00021528
9 *29:14 *172:A 0.000380575
*RES
1 *147:Y *172:A 47.6357 
*END

*D_NET *34 0.00684555
*CONN
*I *173:A I *D sky130_fd_sc_hd__buf_2
*I *151:X O *D sky130_fd_sc_hd__clkbuf_1
*CAP
1 *173:A 0.000663983
2 *151:X 0.00130034
3 *34:10 0.00196432
4 *173:A *148:A2 0.000276186
5 *173:A *149:C 5.71472e-05
6 *173:A *41:8 0.000255234
7 *145:B *34:10 0.000553419
8 *146:B *34:10 0.00149614
9 *148:A3 *173:A 3.97657e-05
10 *151:A *34:10 0
11 *158:B1_N *34:10 7.6021e-05
12 *165:A *34:10 0
13 *167:A *34:10 3.51442e-05
14 *28:12 *34:10 0.000127852
*RES
1 *151:X *34:10 46.175 
2 *34:10 *173:A 27.0857 
*END

*D_NET *35 0.0024067
*CONN
*I *174:A I *D sky130_fd_sc_hd__clkbuf_4
*I *152:X O *D sky130_fd_sc_hd__xor2_1
*CAP
1 *174:A 0.000872956
2 *152:X 0.000872956
3 *174:A *149:C 0
4 *174:A *154:A 0.000262498
5 out[5] *174:A 4.29654e-05
6 *148:A3 *174:A 0
7 *152:B *174:A 0.000320024
8 *154:C *174:A 3.5298e-05
*RES
1 *152:X *174:A 43.4571 
*END

*D_NET *36 0.00679868
*CONN
*I *143:C I *D sky130_fd_sc_hd__or4_2
*I *155:A1 I *D sky130_fd_sc_hd__o21ai_1
*I *153:A I *D sky130_fd_sc_hd__xor2_1
*I *154:B I *D sky130_fd_sc_hd__or3_1
*I *161:X O *D sky130_fd_sc_hd__buf_1
*CAP
1 *143:C 0.000155323
2 *155:A1 0.000280436
3 *153:A 1.69531e-05
4 *154:B 8.85941e-05
5 *161:X 0.000992636
6 *36:14 0.000219911
7 *36:12 0.000571337
8 *36:10 0.0013245
9 *143:C *143:A 0.000434806
10 *143:C *143:B 0.000123673
11 *153:A *43:12 5.33005e-05
12 *154:B *148:A1 0.000245349
13 *154:B *40:25 0
14 *36:10 *147:A 0.000369818
15 *36:10 *43:12 0
16 *36:12 *147:A 0.000266085
17 *36:14 *148:A1 0.000268521
18 *143:D *36:12 6.76178e-05
19 *147:B *36:10 1.41029e-05
20 *147:B *36:12 8.2395e-05
21 *147:B *36:14 4.66203e-05
22 *152:B *154:B 0.000197991
23 *152:B *36:12 0.000185297
24 *152:B *36:14 0.000353995
25 *153:B *153:A 5.33005e-05
26 *155:A2 *155:A1 0.000386121
*RES
1 *161:X *36:10 30.9964 
2 *36:10 *36:12 5.58929 
3 *36:12 *36:14 4.67857 
4 *36:14 *154:B 16.9607 
5 *36:14 *153:A 14.3357 
6 *36:12 *155:A1 18.4607 
7 *36:10 *143:C 18.0321 
*END

*D_NET *37 0.00611649
*CONN
*I *143:B I *D sky130_fd_sc_hd__or4_2
*I *155:B1 I *D sky130_fd_sc_hd__o21ai_1
*I *154:A I *D sky130_fd_sc_hd__or3_1
*I *162:X O *D sky130_fd_sc_hd__buf_1
*CAP
1 *143:B 0.000158225
2 *155:B1 0
3 *154:A 0.000319904
4 *162:X 0.00103583
5 *37:16 0.000568397
6 *37:10 0.00144255
7 *154:A *144:A 0.000267807
8 *154:A *149:A 0.000146474
9 *154:A *149:C 9.74684e-05
10 *37:10 *43:12 0
11 *37:16 *149:A 1.41029e-05
12 *37:16 *149:C 0.000170661
13 *37:16 *43:12 0
14 *143:C *143:B 0.000123673
15 *147:B *37:16 7.13154e-05
16 *148:A3 *154:A 0.000197984
17 *150:A_N *37:16 0.000172368
18 *154:C *154:A 5.33005e-05
19 *155:A2 *37:16 0.000136951
20 *156:B *37:16 6.57032e-05
21 *169:A *37:10 0.000288343
22 *169:A *37:16 0.000125724
23 *174:A *154:A 0.000262498
24 *19:10 *37:16 0
25 *19:12 *154:A 0.000259278
26 *19:14 *154:A 0.000137931
*RES
1 *162:X *37:10 27.2464 
2 *37:10 *37:16 11.4464 
3 *37:16 *154:A 28.6036 
4 *37:16 *155:B1 9.3 
5 *37:10 *143:B 15.9786 
*END

*D_NET *38 0.0043714
*CONN
*I *143:A I *D sky130_fd_sc_hd__or4_2
*I *158:A1 I *D sky130_fd_sc_hd__a21boi_1
*I *163:X O *D sky130_fd_sc_hd__clkbuf_1
*CAP
1 *143:A 0.000516107
2 *158:A1 0.000495826
3 *163:X 0.000358954
4 *38:6 0.00137089
5 *158:A1 *40:25 0
6 *158:A1 *43:12 5.71472e-05
7 *143:C *143:A 0.000434806
8 *143:D *143:A 0.000520509
9 *151:A *158:A1 0.000172815
10 *156:B *158:A1 0
11 *157:A *143:A 5.07121e-05
12 *157:A *158:A1 7.83587e-05
13 *169:A *143:A 0.000192861
14 *19:10 *143:A 6.71854e-05
15 *28:21 *158:A1 5.52302e-05
*RES
1 *163:X *38:6 13.1214 
2 *38:6 *158:A1 28.0679 
3 *38:6 *143:A 21.7821 
*END

*D_NET *39 0.00813221
*CONN
*I *149:A I *D sky130_fd_sc_hd__or4_1
*I *144:A I *D sky130_fd_sc_hd__nor2_1
*I *148:A1 I *D sky130_fd_sc_hd__o31a_1
*I *145:A I *D sky130_fd_sc_hd__and2_1
*I *164:X O *D sky130_fd_sc_hd__buf_1
*CAP
1 *149:A 0.00012643
2 *144:A 8.26389e-05
3 *148:A1 0.000448748
4 *145:A 0.00051576
5 *164:X 0
6 *39:34 0.000408561
7 *39:19 0.00159099
8 *39:4 0.00145851
9 *144:A *149:C 0.000267807
10 *148:A1 *148:A2 0
11 *148:A1 *149:C 0
12 *149:A *149:C 0.000299349
13 *146:A *148:A1 0.000337644
14 *147:B *148:A1 0.000304915
15 *148:A3 *148:A1 1.73501e-05
16 *150:A_N *148:A1 0.000167022
17 *154:A *144:A 0.000267807
18 *154:A *149:A 0.000146474
19 *154:B *148:A1 0.000245349
20 *162:A *145:A 0
21 *163:A *145:A 0
22 *164:A *145:A 7.43578e-06
23 *171:A *39:34 4.58194e-05
24 *19:12 *149:A 9.55563e-05
25 *19:48 *145:A 9.33978e-07
26 *19:48 *39:19 0.000105709
27 *19:48 *39:34 8.27238e-06
28 *28:12 *145:A 0.000900506
29 *36:14 *148:A1 0.000268521
30 *37:16 *149:A 1.41029e-05
*RES
1 *164:X *39:4 9.3 
2 *39:4 *145:A 30.6036 
3 *39:4 *39:19 10.8036 
4 *39:19 *148:A1 31.4786 
5 *39:19 *39:34 6.67857 
6 *39:34 *144:A 17.2643 
7 *39:34 *149:A 18.175 
*END

*D_NET *40 0.00786821
*CONN
*I *149:B I *D sky130_fd_sc_hd__or4_1
*I *147:A I *D sky130_fd_sc_hd__xnor2_1
*I *148:A2 I *D sky130_fd_sc_hd__o31a_1
*I *165:X O *D sky130_fd_sc_hd__buf_1
*CAP
1 *149:B 0.00017804
2 *147:A 0.000176054
3 *148:A2 0.000350266
4 *165:X 0.000591964
5 *40:25 0.00109333
6 *40:8 0.00168146
7 *148:A2 *152:A 0.000460391
8 *148:A2 *41:8 0.000490416
9 *149:B *149:C 2.59355e-05
10 *40:8 *152:A 1.59373e-05
11 *40:25 *152:A 6.98302e-05
12 *147:B *147:A 0.000626653
13 *148:A1 *148:A2 0
14 *151:A *40:25 0.000312215
15 *152:B *40:8 4.82865e-05
16 *152:B *40:25 0
17 *154:B *40:25 0
18 *154:C *40:25 0
19 *156:A *40:25 0.000527785
20 *156:B *40:25 7.83659e-05
21 *158:A1 *40:25 0
22 *173:A *148:A2 0.000276186
23 *23:6 *149:B 0.000135028
24 *23:6 *40:25 9.41642e-05
25 *36:10 *147:A 0.000369818
26 *36:12 *147:A 0.000266085
*RES
1 *165:X *40:8 20.4964 
2 *40:8 *148:A2 24.9429 
3 *40:8 *40:25 18.5714 
4 *40:25 *147:A 26.3179 
5 *40:25 *149:B 11.4786 
*END

*D_NET *41 0.00549651
*CONN
*I *149:C I *D sky130_fd_sc_hd__or4_1
*I *148:B1 I *D sky130_fd_sc_hd__o31a_1
*I *166:X O *D sky130_fd_sc_hd__clkbuf_1
*CAP
1 *149:C 0.000575314
2 *148:B1 0
3 *166:X 0.000439929
4 *41:8 0.00101524
5 *41:8 *152:A 0.000535008
6 *144:A *149:C 0.000267807
7 *148:A1 *149:C 0
8 *148:A2 *41:8 0.000490416
9 *148:A3 *149:C 0.000249904
10 *148:A3 *41:8 1.24368e-05
11 *149:A *149:C 0.000299349
12 *149:B *149:C 2.59355e-05
13 *150:A_N *149:C 0.000295569
14 *150:A_N *41:8 0.00018372
15 *154:A *149:C 9.74684e-05
16 *171:A *149:C 0.00052537
17 *173:A *149:C 5.71472e-05
18 *173:A *41:8 0.000255234
19 *174:A *149:C 0
20 *37:16 *149:C 0.000170661
*RES
1 *166:X *41:8 22.0679 
2 *41:8 *148:B1 9.3 
3 *41:8 *149:C 36.9071 
*END

*D_NET *42 0.00245668
*CONN
*I *152:A I *D sky130_fd_sc_hd__xor2_1
*I *167:X O *D sky130_fd_sc_hd__clkbuf_1
*CAP
1 *152:A 0.000660283
2 *167:X 0.000660283
3 *148:A2 *152:A 0.000460391
4 *152:B *152:A 5.49489e-05
5 *40:8 *152:A 1.59373e-05
6 *40:25 *152:A 6.98302e-05
7 *41:8 *152:A 0.000535008
*RES
1 *167:X *152:A 40.4036 
*END

*D_NET *43 0.00601007
*CONN
*I *175:A I *D sky130_fd_sc_hd__buf_2
*I *159:X O *D sky130_fd_sc_hd__clkbuf_1
*CAP
1 *175:A 3.72704e-05
2 *159:X 0.0014054
3 *43:12 0.00144267
4 *147:B *43:12 0
5 *148:A3 *43:12 3.34366e-05
6 *153:A *43:12 5.33005e-05
7 *153:B *43:12 5.36e-05
8 *158:A1 *43:12 5.71472e-05
9 *158:A2 *43:12 0.000271725
10 *158:B1_N *43:12 0.000225385
11 *169:A *43:12 0
12 *170:A *43:12 0.000645324
13 *172:A *43:12 0
14 *19:10 *43:12 0.000126439
15 *19:12 *43:12 0.000460406
16 *19:14 *43:12 0.000148182
17 *20:8 *43:12 0.000219711
18 *25:12 *43:12 0.000258005
19 *28:21 *43:12 8.07884e-05
20 *29:14 *43:12 0.000491274
21 *36:10 *43:12 0
22 *37:10 *43:12 0
23 *37:16 *43:12 0
*RES
1 *159:X *43:12 47.7643 
2 *43:12 *175:A 14.3357 
*END
