* NGSPICE file created from ALU.ext - technology: sky130A

* Black-box entry subcircuit for sky130_fd_sc_hd__fill_2 abstract view
.subckt sky130_fd_sc_hd__fill_2 VGND VNB VPB VPWR
.ends

* Black-box entry subcircuit for sky130_fd_sc_hd__decap_6 abstract view
.subckt sky130_fd_sc_hd__decap_6 VGND VNB VPB VPWR
.ends

* Black-box entry subcircuit for sky130_fd_sc_hd__xor2_1 abstract view
.subckt sky130_fd_sc_hd__xor2_1 A B VGND VNB VPB VPWR X
.ends

* Black-box entry subcircuit for sky130_fd_sc_hd__tapvpwrvgnd_1 abstract view
.subckt sky130_fd_sc_hd__tapvpwrvgnd_1 VGND VPWR
.ends

* Black-box entry subcircuit for sky130_fd_sc_hd__decap_4 abstract view
.subckt sky130_fd_sc_hd__decap_4 VGND VNB VPB VPWR
.ends

* Black-box entry subcircuit for sky130_fd_sc_hd__or3_4 abstract view
.subckt sky130_fd_sc_hd__or3_4 A B C VGND VNB VPB VPWR X
.ends

* Black-box entry subcircuit for sky130_ef_sc_hd__decap_12 abstract view
.subckt sky130_ef_sc_hd__decap_12 VPWR VGND VPB VNB
.ends

* Black-box entry subcircuit for sky130_fd_sc_hd__and2b_1 abstract view
.subckt sky130_fd_sc_hd__and2b_1 A_N B VGND VNB VPB VPWR X
.ends

* Black-box entry subcircuit for sky130_fd_sc_hd__nand2_1 abstract view
.subckt sky130_fd_sc_hd__nand2_1 A B VGND VNB VPB VPWR Y
.ends

* Black-box entry subcircuit for sky130_fd_sc_hd__xnor2_1 abstract view
.subckt sky130_fd_sc_hd__xnor2_1 A B VGND VNB VPB VPWR Y
.ends

* Black-box entry subcircuit for sky130_fd_sc_hd__decap_8 abstract view
.subckt sky130_fd_sc_hd__decap_8 VGND VNB VPB VPWR
.ends

* Black-box entry subcircuit for sky130_fd_sc_hd__decap_3 abstract view
.subckt sky130_fd_sc_hd__decap_3 VGND VNB VPB VPWR
.ends

* Black-box entry subcircuit for sky130_fd_sc_hd__fill_1 abstract view
.subckt sky130_fd_sc_hd__fill_1 VGND VNB VPB VPWR
.ends

* Black-box entry subcircuit for sky130_fd_sc_hd__buf_2 abstract view
.subckt sky130_fd_sc_hd__buf_2 A VGND VNB VPB VPWR X
.ends

* Black-box entry subcircuit for sky130_fd_sc_hd__o21a_1 abstract view
.subckt sky130_fd_sc_hd__o21a_1 A1 A2 B1 VGND VNB VPB VPWR X
.ends

* Black-box entry subcircuit for sky130_fd_sc_hd__a31o_1 abstract view
.subckt sky130_fd_sc_hd__a31o_1 A1 A2 A3 B1 VGND VNB VPB VPWR X
.ends

* Black-box entry subcircuit for sky130_fd_sc_hd__a311oi_4 abstract view
.subckt sky130_fd_sc_hd__a311oi_4 A1 A2 A3 B1 C1 VGND VNB VPB VPWR Y
.ends

* Black-box entry subcircuit for sky130_fd_sc_hd__xnor2_2 abstract view
.subckt sky130_fd_sc_hd__xnor2_2 A B VGND VNB VPB VPWR Y
.ends

* Black-box entry subcircuit for sky130_fd_sc_hd__a21oi_1 abstract view
.subckt sky130_fd_sc_hd__a21oi_1 A1 A2 B1 VGND VNB VPB VPWR Y
.ends

* Black-box entry subcircuit for sky130_fd_sc_hd__xnor2_4 abstract view
.subckt sky130_fd_sc_hd__xnor2_4 A B VGND VNB VPB VPWR Y
.ends

* Black-box entry subcircuit for sky130_fd_sc_hd__or2b_1 abstract view
.subckt sky130_fd_sc_hd__or2b_1 A B_N VGND VNB VPB VPWR X
.ends

* Black-box entry subcircuit for sky130_fd_sc_hd__a21o_1 abstract view
.subckt sky130_fd_sc_hd__a21o_1 A1 A2 B1 VGND VNB VPB VPWR X
.ends

* Black-box entry subcircuit for sky130_fd_sc_hd__o22a_1 abstract view
.subckt sky130_fd_sc_hd__o22a_1 A1 A2 B1 B2 VGND VNB VPB VPWR X
.ends

* Black-box entry subcircuit for sky130_fd_sc_hd__a311o_4 abstract view
.subckt sky130_fd_sc_hd__a311o_4 A1 A2 A3 B1 C1 VGND VNB VPB VPWR X
.ends

* Black-box entry subcircuit for sky130_fd_sc_hd__inv_2 abstract view
.subckt sky130_fd_sc_hd__inv_2 A VGND VNB VPB VPWR Y
.ends

* Black-box entry subcircuit for sky130_fd_sc_hd__o21bai_4 abstract view
.subckt sky130_fd_sc_hd__o21bai_4 A1 A2 B1_N VGND VNB VPB VPWR Y
.ends

* Black-box entry subcircuit for sky130_fd_sc_hd__o21bai_1 abstract view
.subckt sky130_fd_sc_hd__o21bai_1 A1 A2 B1_N VGND VNB VPB VPWR Y
.ends

* Black-box entry subcircuit for sky130_fd_sc_hd__a21oi_2 abstract view
.subckt sky130_fd_sc_hd__a21oi_2 A1 A2 B1 VGND VNB VPB VPWR Y
.ends

* Black-box entry subcircuit for sky130_fd_sc_hd__or2_2 abstract view
.subckt sky130_fd_sc_hd__or2_2 A B VGND VNB VPB VPWR X
.ends

* Black-box entry subcircuit for sky130_fd_sc_hd__or2_1 abstract view
.subckt sky130_fd_sc_hd__or2_1 A B VGND VNB VPB VPWR X
.ends

* Black-box entry subcircuit for sky130_fd_sc_hd__a311o_1 abstract view
.subckt sky130_fd_sc_hd__a311o_1 A1 A2 A3 B1 C1 VGND VNB VPB VPWR X
.ends

* Black-box entry subcircuit for sky130_fd_sc_hd__and4_2 abstract view
.subckt sky130_fd_sc_hd__and4_2 A B C D VGND VNB VPB VPWR X
.ends

* Black-box entry subcircuit for sky130_fd_sc_hd__nand2_4 abstract view
.subckt sky130_fd_sc_hd__nand2_4 A B VGND VNB VPB VPWR Y
.ends

* Black-box entry subcircuit for sky130_fd_sc_hd__nor2_1 abstract view
.subckt sky130_fd_sc_hd__nor2_1 A B VGND VNB VPB VPWR Y
.ends

* Black-box entry subcircuit for sky130_fd_sc_hd__a22oi_4 abstract view
.subckt sky130_fd_sc_hd__a22oi_4 A1 A2 B1 B2 VGND VNB VPB VPWR Y
.ends

* Black-box entry subcircuit for sky130_fd_sc_hd__nor2_2 abstract view
.subckt sky130_fd_sc_hd__nor2_2 A B VGND VNB VPB VPWR Y
.ends

* Black-box entry subcircuit for sky130_fd_sc_hd__o21ai_1 abstract view
.subckt sky130_fd_sc_hd__o21ai_1 A1 A2 B1 VGND VNB VPB VPWR Y
.ends

* Black-box entry subcircuit for sky130_fd_sc_hd__clkbuf_4 abstract view
.subckt sky130_fd_sc_hd__clkbuf_4 A VGND VNB VPB VPWR X
.ends

* Black-box entry subcircuit for sky130_fd_sc_hd__and2_4 abstract view
.subckt sky130_fd_sc_hd__and2_4 A B VGND VNB VPB VPWR X
.ends

* Black-box entry subcircuit for sky130_fd_sc_hd__buf_4 abstract view
.subckt sky130_fd_sc_hd__buf_4 A VGND VNB VPB VPWR X
.ends

* Black-box entry subcircuit for sky130_fd_sc_hd__nand2_2 abstract view
.subckt sky130_fd_sc_hd__nand2_2 A B VGND VNB VPB VPWR Y
.ends

* Black-box entry subcircuit for sky130_fd_sc_hd__o31a_2 abstract view
.subckt sky130_fd_sc_hd__o31a_2 A1 A2 A3 B1 VGND VNB VPB VPWR X
.ends

* Black-box entry subcircuit for sky130_fd_sc_hd__o211ai_2 abstract view
.subckt sky130_fd_sc_hd__o211ai_2 A1 A2 B1 C1 VGND VNB VPB VPWR Y
.ends

* Black-box entry subcircuit for sky130_fd_sc_hd__nand3b_4 abstract view
.subckt sky130_fd_sc_hd__nand3b_4 A_N B C VGND VNB VPB VPWR Y
.ends

* Black-box entry subcircuit for sky130_fd_sc_hd__o21ai_4 abstract view
.subckt sky130_fd_sc_hd__o21ai_4 A1 A2 B1 VGND VNB VPB VPWR Y
.ends

* Black-box entry subcircuit for sky130_fd_sc_hd__or2_4 abstract view
.subckt sky130_fd_sc_hd__or2_4 A B VGND VNB VPB VPWR X
.ends

* Black-box entry subcircuit for sky130_fd_sc_hd__a22o_1 abstract view
.subckt sky130_fd_sc_hd__a22o_1 A1 A2 B1 B2 VGND VNB VPB VPWR X
.ends

* Black-box entry subcircuit for sky130_fd_sc_hd__nor3_1 abstract view
.subckt sky130_fd_sc_hd__nor3_1 A B C VGND VNB VPB VPWR Y
.ends

* Black-box entry subcircuit for sky130_fd_sc_hd__a21bo_1 abstract view
.subckt sky130_fd_sc_hd__a21bo_1 A1 A2 B1_N VGND VNB VPB VPWR X
.ends

* Black-box entry subcircuit for sky130_fd_sc_hd__o221a_1 abstract view
.subckt sky130_fd_sc_hd__o221a_1 A1 A2 B1 B2 C1 VGND VNB VPB VPWR X
.ends

* Black-box entry subcircuit for sky130_fd_sc_hd__buf_1 abstract view
.subckt sky130_fd_sc_hd__buf_1 A VGND VNB VPB VPWR X
.ends

* Black-box entry subcircuit for sky130_fd_sc_hd__clkbuf_2 abstract view
.subckt sky130_fd_sc_hd__clkbuf_2 A VGND VNB VPB VPWR X
.ends

* Black-box entry subcircuit for sky130_fd_sc_hd__and3_1 abstract view
.subckt sky130_fd_sc_hd__and3_1 A B C VGND VNB VPB VPWR X
.ends

* Black-box entry subcircuit for sky130_fd_sc_hd__o211ai_1 abstract view
.subckt sky130_fd_sc_hd__o211ai_1 A1 A2 B1 C1 VGND VNB VPB VPWR Y
.ends

* Black-box entry subcircuit for sky130_fd_sc_hd__a211o_1 abstract view
.subckt sky130_fd_sc_hd__a211o_1 A1 A2 B1 C1 VGND VNB VPB VPWR X
.ends

* Black-box entry subcircuit for sky130_fd_sc_hd__or3b_1 abstract view
.subckt sky130_fd_sc_hd__or3b_1 A B C_N VGND VNB VPB VPWR X
.ends

* Black-box entry subcircuit for sky130_fd_sc_hd__nand3_2 abstract view
.subckt sky130_fd_sc_hd__nand3_2 A B C VGND VNB VPB VPWR Y
.ends

* Black-box entry subcircuit for sky130_fd_sc_hd__o31a_4 abstract view
.subckt sky130_fd_sc_hd__o31a_4 A1 A2 A3 B1 VGND VNB VPB VPWR X
.ends

* Black-box entry subcircuit for sky130_fd_sc_hd__or3_1 abstract view
.subckt sky130_fd_sc_hd__or3_1 A B C VGND VNB VPB VPWR X
.ends

* Black-box entry subcircuit for sky130_fd_sc_hd__a221o_1 abstract view
.subckt sky130_fd_sc_hd__a221o_1 A1 A2 B1 B2 C1 VGND VNB VPB VPWR X
.ends

* Black-box entry subcircuit for sky130_fd_sc_hd__and2_1 abstract view
.subckt sky130_fd_sc_hd__and2_1 A B VGND VNB VPB VPWR X
.ends

* Black-box entry subcircuit for sky130_fd_sc_hd__and3_2 abstract view
.subckt sky130_fd_sc_hd__and3_2 A B C VGND VNB VPB VPWR X
.ends

* Black-box entry subcircuit for sky130_fd_sc_hd__or4b_1 abstract view
.subckt sky130_fd_sc_hd__or4b_1 A B C D_N VGND VNB VPB VPWR X
.ends

* Black-box entry subcircuit for sky130_fd_sc_hd__and4_1 abstract view
.subckt sky130_fd_sc_hd__and4_1 A B C D VGND VNB VPB VPWR X
.ends

* Black-box entry subcircuit for sky130_fd_sc_hd__nand3_1 abstract view
.subckt sky130_fd_sc_hd__nand3_1 A B C VGND VNB VPB VPWR Y
.ends

* Black-box entry subcircuit for sky130_fd_sc_hd__and3b_2 abstract view
.subckt sky130_fd_sc_hd__and3b_2 A_N B C VGND VNB VPB VPWR X
.ends

* Black-box entry subcircuit for sky130_fd_sc_hd__o21a_2 abstract view
.subckt sky130_fd_sc_hd__o21a_2 A1 A2 B1 VGND VNB VPB VPWR X
.ends

* Black-box entry subcircuit for sky130_fd_sc_hd__and3b_1 abstract view
.subckt sky130_fd_sc_hd__and3b_1 A_N B C VGND VNB VPB VPWR X
.ends

* Black-box entry subcircuit for sky130_fd_sc_hd__nor2_4 abstract view
.subckt sky130_fd_sc_hd__nor2_4 A B VGND VNB VPB VPWR Y
.ends

* Black-box entry subcircuit for sky130_fd_sc_hd__and2_2 abstract view
.subckt sky130_fd_sc_hd__and2_2 A B VGND VNB VPB VPWR X
.ends

* Black-box entry subcircuit for sky130_fd_sc_hd__a31oi_1 abstract view
.subckt sky130_fd_sc_hd__a31oi_1 A1 A2 A3 B1 VGND VNB VPB VPWR Y
.ends

* Black-box entry subcircuit for sky130_fd_sc_hd__dlygate4sd1_1 abstract view
.subckt sky130_fd_sc_hd__dlygate4sd1_1 A VGND VNB VPB VPWR X
.ends

* Black-box entry subcircuit for sky130_fd_sc_hd__diode_2 abstract view
.subckt sky130_fd_sc_hd__diode_2 DIODE VGND VNB VPB VPWR
.ends

* Black-box entry subcircuit for sky130_fd_sc_hd__o21ai_2 abstract view
.subckt sky130_fd_sc_hd__o21ai_2 A1 A2 B1 VGND VNB VPB VPWR Y
.ends

* Black-box entry subcircuit for sky130_fd_sc_hd__xor2_2 abstract view
.subckt sky130_fd_sc_hd__xor2_2 A B VGND VNB VPB VPWR X
.ends

.subckt ALU A[0] A[1] A[2] A[3] A[4] A[5] A[6] A[7] B[0] B[1] B[2] B[3] B[4] B[5]
+ B[6] B[7] OP[0] OP[1] OP[2] OUT[0] OUT[1] OUT[2] OUT[3] OUT[4] OUT[5] OUT[6] OUT[7]
+ VGND VPWR
XFILLER_0_27_82 VGND VGND VPWR VPWR sky130_fd_sc_hd__fill_2
XFILLER_0_2_7 VGND VGND VPWR VPWR sky130_fd_sc_hd__decap_6
X_294_ _048_ _049_ VGND VGND VPWR VPWR _050_ sky130_fd_sc_hd__xor2_1
XTAP_TAPCELL_ROW_15_106 VGND VPWR sky130_fd_sc_hd__tapvpwrvgnd_1
XFILLER_0_13_51 VGND VGND VPWR VPWR sky130_fd_sc_hd__decap_4
X_346_ _089_ _092_ _096_ VGND VGND VPWR VPWR _097_ sky130_fd_sc_hd__or3_4
XTAP_TAPCELL_ROW_20_120 VGND VPWR sky130_fd_sc_hd__tapvpwrvgnd_1
XFILLER_0_18_29 VPWR VGND VPWR VGND sky130_ef_sc_hd__decap_12
X_277_ _033_ _023_ VGND VGND VPWR VPWR _034_ sky130_fd_sc_hd__and2b_1
X_200_ _117_ _127_ VGND VGND VPWR VPWR _128_ sky130_fd_sc_hd__nand2_1
X_329_ _079_ _080_ VGND VGND VPWR VPWR _081_ sky130_fd_sc_hd__xnor2_1
XFILLER_0_10_41 VGND VGND VPWR VPWR sky130_fd_sc_hd__decap_8
XFILLER_0_10_85 VPWR VGND VPWR VGND sky130_ef_sc_hd__decap_12
XFILLER_0_19_169 VPWR VGND VPWR VGND sky130_ef_sc_hd__decap_12
XFILLER_0_19_125 VGND VGND VPWR VPWR sky130_fd_sc_hd__decap_8
XFILLER_0_19_83 VPWR VGND VPWR VGND sky130_ef_sc_hd__decap_12
XPHY_EDGE_ROW_8_Left_36 VGND VGND VPWR VPWR sky130_fd_sc_hd__decap_3
XFILLER_0_24_183 VGND VGND VPWR VPWR sky130_fd_sc_hd__decap_6
XFILLER_0_21_95 VGND VGND VPWR VPWR sky130_fd_sc_hd__decap_8
XFILLER_0_21_73 VGND VGND VPWR VPWR sky130_fd_sc_hd__fill_1
XFILLER_0_26_29 VGND VGND VPWR VPWR sky130_fd_sc_hd__decap_8
XFILLER_0_8_147 VPWR VGND VPWR VGND sky130_ef_sc_hd__decap_12
XFILLER_0_12_153 VPWR VGND VPWR VGND sky130_ef_sc_hd__decap_12
XFILLER_0_12_120 VGND VGND VPWR VPWR sky130_fd_sc_hd__decap_6
Xoutput20 net20 VGND VGND VPWR VPWR OUT[0] sky130_fd_sc_hd__buf_2
XTAP_TAPCELL_ROW_18_115 VGND VPWR sky130_fd_sc_hd__tapvpwrvgnd_1
XFILLER_0_5_117 VGND VGND VPWR VPWR sky130_fd_sc_hd__fill_1
XFILLER_0_23_19 VPWR VGND VPWR VGND sky130_ef_sc_hd__decap_12
XPHY_EDGE_ROW_21_Left_49 VGND VGND VPWR VPWR sky130_fd_sc_hd__decap_3
X_293_ net15 _025_ net31 VGND VGND VPWR VPWR _049_ sky130_fd_sc_hd__o21a_1
XFILLER_0_2_109 VGND VGND VPWR VPWR sky130_fd_sc_hd__decap_8
XFILLER_0_13_63 VGND VGND VPWR VPWR sky130_fd_sc_hd__decap_4
XTAP_TAPCELL_ROW_20_121 VGND VPWR sky130_fd_sc_hd__tapvpwrvgnd_1
X_345_ _138_ _100_ _093_ _095_ VGND VGND VPWR VPWR _096_ sky130_fd_sc_hd__a31o_1
X_276_ _019_ _166_ _015_ _029_ _030_ VGND VGND VPWR VPWR _033_ sky130_fd_sc_hd__a311oi_4
XPHY_EDGE_ROW_21_Right_21 VGND VGND VPWR VPWR sky130_fd_sc_hd__decap_3
XPHY_EDGE_ROW_12_Right_12 VGND VGND VPWR VPWR sky130_fd_sc_hd__decap_3
XFILLER_0_4_83 VGND VGND VPWR VPWR sky130_fd_sc_hd__fill_1
X_328_ _169_ _008_ VGND VGND VPWR VPWR _080_ sky130_fd_sc_hd__nand2_1
XFILLER_0_0_19 VGND VGND VPWR VPWR sky130_fd_sc_hd__decap_8
X_259_ net14 _016_ VGND VGND VPWR VPWR _017_ sky130_fd_sc_hd__xnor2_2
XFILLER_0_10_20 VGND VGND VPWR VPWR sky130_fd_sc_hd__decap_8
XFILLER_0_27_181 VGND VGND VPWR VPWR sky130_fd_sc_hd__fill_1
XPHY_EDGE_ROW_24_Left_52 VGND VGND VPWR VPWR sky130_fd_sc_hd__decap_3
XFILLER_0_19_95 VPWR VGND VPWR VGND sky130_ef_sc_hd__decap_12
XFILLER_0_10_97 VPWR VGND VPWR VGND sky130_ef_sc_hd__decap_12
XFILLER_0_21_41 VPWR VGND VPWR VGND sky130_ef_sc_hd__decap_12
XFILLER_0_26_19 VGND VGND VPWR VPWR sky130_fd_sc_hd__fill_2
XFILLER_0_1_51 VGND VGND VPWR VPWR sky130_fd_sc_hd__decap_4
XFILLER_0_16_85 VGND VGND VPWR VPWR sky130_fd_sc_hd__decap_8
XFILLER_0_12_165 VPWR VGND VPWR VGND sky130_ef_sc_hd__decap_12
XPHY_EDGE_ROW_6_Right_6 VGND VGND VPWR VPWR sky130_fd_sc_hd__decap_3
XFILLER_0_8_159 VPWR VGND VPWR VGND sky130_ef_sc_hd__decap_12
Xoutput21 net21 VGND VGND VPWR VPWR OUT[1] sky130_fd_sc_hd__buf_2
XFILLER_0_7_181 VGND VGND VPWR VPWR sky130_fd_sc_hd__decap_8
XFILLER_0_27_51 VGND VGND VPWR VPWR sky130_fd_sc_hd__fill_1
XTAP_TAPCELL_ROW_23_130 VGND VPWR sky130_fd_sc_hd__tapvpwrvgnd_1
X_292_ net16 net8 VGND VGND VPWR VPWR _048_ sky130_fd_sc_hd__xnor2_2
XFILLER_0_3_19 VGND VGND VPWR VPWR sky130_fd_sc_hd__fill_2
X_275_ _029_ _031_ VGND VGND VPWR VPWR _032_ sky130_fd_sc_hd__nand2_1
X_344_ net13 net5 _094_ VGND VGND VPWR VPWR _095_ sky130_fd_sc_hd__a21oi_1
XFILLER_0_24_85 VGND VGND VPWR VPWR sky130_fd_sc_hd__decap_8
XFILLER_0_24_41 VGND VGND VPWR VPWR sky130_fd_sc_hd__decap_8
XFILLER_0_4_40 VPWR VGND VPWR VGND sky130_ef_sc_hd__decap_12
X_189_ _102_ _116_ VGND VGND VPWR VPWR _117_ sky130_fd_sc_hd__xnor2_4
X_327_ _012_ _011_ VGND VGND VPWR VPWR _079_ sky130_fd_sc_hd__or2b_1
XFILLER_0_19_138 VPWR VGND VPWR VGND sky130_ef_sc_hd__decap_12
X_258_ net13 _163_ _164_ VGND VGND VPWR VPWR _016_ sky130_fd_sc_hd__a21o_1
XFILLER_0_18_182 VGND VGND VPWR VPWR sky130_fd_sc_hd__fill_1
XFILLER_0_24_141 VPWR VGND VPWR VGND sky130_ef_sc_hd__decap_12
XFILLER_0_21_53 VGND VGND VPWR VPWR sky130_fd_sc_hd__decap_3
XFILLER_0_21_166 VGND VGND VPWR VPWR sky130_fd_sc_hd__fill_2
XFILLER_0_12_177 VGND VGND VPWR VPWR sky130_fd_sc_hd__decap_8
Xoutput22 net22 VGND VGND VPWR VPWR OUT[2] sky130_fd_sc_hd__buf_2
XFILLER_0_9_3 VPWR VGND VPWR VGND sky130_ef_sc_hd__decap_12
X_291_ _032_ _034_ _047_ VGND VGND VPWR VPWR net26 sky130_fd_sc_hd__a21o_1
XFILLER_0_1_155 VPWR VGND VPWR VGND sky130_ef_sc_hd__decap_12
XFILLER_0_1_111 VGND VGND VPWR VPWR sky130_fd_sc_hd__fill_1
X_343_ net5 _153_ _090_ _158_ VGND VGND VPWR VPWR _094_ sky130_fd_sc_hd__o22a_1
XFILLER_0_0_7 VPWR VGND VPWR VGND sky130_ef_sc_hd__decap_12
X_274_ _019_ _166_ _015_ _030_ VGND VGND VPWR VPWR _031_ sky130_fd_sc_hd__a31o_1
X_326_ _008_ _023_ _072_ _078_ VGND VGND VPWR VPWR net22 sky130_fd_sc_hd__a31o_1
X_188_ _110_ _115_ VGND VGND VPWR VPWR _116_ sky130_fd_sc_hd__xnor2_4
XFILLER_0_10_11 VGND VGND VPWR VPWR sky130_fd_sc_hd__fill_1
X_257_ _008_ _169_ _011_ _012_ _014_ VGND VGND VPWR VPWR _015_ sky130_fd_sc_hd__a311o_4
X_309_ _101_ _103_ _156_ _062_ VGND VGND VPWR VPWR _063_ sky130_fd_sc_hd__o22a_1
XFILLER_0_24_153 VGND VGND VPWR VPWR sky130_fd_sc_hd__fill_1
XFILLER_0_21_145 VPWR VGND VPWR VGND sky130_ef_sc_hd__decap_12
XTAP_TAPCELL_ROW_10_90 VGND VPWR sky130_fd_sc_hd__tapvpwrvgnd_1
XFILLER_0_16_43 VPWR VGND VPWR VGND sky130_ef_sc_hd__decap_12
XFILLER_0_8_128 VPWR VGND VPWR VGND sky130_ef_sc_hd__decap_12
Xoutput23 net23 VGND VGND VPWR VPWR OUT[3] sky130_fd_sc_hd__buf_2
XFILLER_0_7_161 VGND VGND VPWR VPWR sky130_fd_sc_hd__decap_6
XFILLER_0_7_85 VPWR VGND VPWR VGND sky130_ef_sc_hd__decap_12
X_290_ _100_ _040_ _041_ _046_ VGND VGND VPWR VPWR _047_ sky130_fd_sc_hd__a31o_1
XFILLER_0_13_55 VGND VGND VPWR VPWR sky130_fd_sc_hd__fill_1
XFILLER_0_1_178 VGND VGND VPWR VPWR sky130_fd_sc_hd__decap_3
XFILLER_0_1_167 VGND VGND VPWR VPWR sky130_fd_sc_hd__fill_1
XFILLER_0_1_145 VGND VGND VPWR VPWR sky130_fd_sc_hd__fill_2
XTAP_TAPCELL_ROW_3_70 VGND VPWR sky130_fd_sc_hd__tapvpwrvgnd_1
X_273_ _018_ VGND VGND VPWR VPWR _030_ sky130_fd_sc_hd__inv_2
X_342_ _134_ _137_ _129_ VGND VGND VPWR VPWR _093_ sky130_fd_sc_hd__a21o_1
XFILLER_0_24_98 VPWR VGND VPWR VGND sky130_ef_sc_hd__decap_12
XFILLER_0_24_76 VGND VGND VPWR VPWR sky130_fd_sc_hd__decap_8
XFILLER_0_24_54 VPWR VGND VPWR VGND sky130_ef_sc_hd__decap_12
X_187_ _111_ _113_ _114_ VGND VGND VPWR VPWR _115_ sky130_fd_sc_hd__o21bai_4
X_325_ _134_ _073_ _077_ VGND VGND VPWR VPWR _078_ sky130_fd_sc_hd__o21bai_1
XFILLER_0_19_65 VGND VGND VPWR VPWR sky130_fd_sc_hd__fill_1
XFILLER_0_19_54 VGND VGND VPWR VPWR sky130_fd_sc_hd__fill_2
XTAP_TAPCELL_ROW_0_60 VGND VPWR sky130_fd_sc_hd__tapvpwrvgnd_1
X_256_ _166_ _013_ VGND VGND VPWR VPWR _014_ sky130_fd_sc_hd__nand2_1
XFILLER_0_19_107 VGND VGND VPWR VPWR sky130_fd_sc_hd__decap_4
XFILLER_0_18_162 VPWR VGND VPWR VGND sky130_ef_sc_hd__decap_12
X_239_ net30 _162_ _106_ VGND VGND VPWR VPWR _167_ sky130_fd_sc_hd__a21oi_2
X_308_ _101_ _103_ _158_ VGND VGND VPWR VPWR _062_ sky130_fd_sc_hd__a21oi_1
XFILLER_0_24_110 VPWR VGND VPWR VGND sky130_ef_sc_hd__decap_12
XFILLER_0_15_176 VPWR VGND VPWR VGND sky130_ef_sc_hd__decap_12
XFILLER_0_15_165 VGND VGND VPWR VPWR sky130_fd_sc_hd__decap_3
XFILLER_0_15_121 VGND VGND VPWR VPWR sky130_fd_sc_hd__decap_3
XTAP_TAPCELL_ROW_10_91 VGND VPWR sky130_fd_sc_hd__tapvpwrvgnd_1
XFILLER_0_21_157 VGND VGND VPWR VPWR sky130_fd_sc_hd__decap_6
XFILLER_0_21_113 VGND VGND VPWR VPWR sky130_fd_sc_hd__decap_6
XFILLER_0_16_55 VGND VGND VPWR VPWR sky130_fd_sc_hd__decap_6
XFILLER_0_16_11 VPWR VGND VPWR VGND sky130_ef_sc_hd__decap_12
XFILLER_0_25_3 VPWR VGND VPWR VGND sky130_ef_sc_hd__decap_12
Xoutput24 net24 VGND VGND VPWR VPWR OUT[4] sky130_fd_sc_hd__buf_2
XFILLER_0_27_10 VPWR VGND VPWR VGND sky130_ef_sc_hd__decap_12
XPHY_EDGE_ROW_19_Right_19 VGND VGND VPWR VPWR sky130_fd_sc_hd__decap_3
XPHY_EDGE_ROW_15_Left_43 VGND VGND VPWR VPWR sky130_fd_sc_hd__decap_3
XFILLER_0_4_121 VGND VGND VPWR VPWR sky130_fd_sc_hd__decap_6
XFILLER_0_7_42 VPWR VGND VPWR VGND sky130_ef_sc_hd__decap_12
XFILLER_0_7_97 VGND VGND VPWR VPWR sky130_fd_sc_hd__fill_2
XFILLER_0_1_113 VPWR VGND VPWR VGND sky130_ef_sc_hd__decap_12
X_341_ net13 net5 _151_ _091_ VGND VGND VPWR VPWR _092_ sky130_fd_sc_hd__a31o_1
XPHY_EDGE_ROW_0_Left_28 VGND VGND VPWR VPWR sky130_fd_sc_hd__decap_3
X_272_ _027_ _028_ VGND VGND VPWR VPWR _029_ sky130_fd_sc_hd__or2_2
XFILLER_0_24_66 VGND VGND VPWR VPWR sky130_fd_sc_hd__decap_4
XFILLER_0_24_11 VGND VGND VPWR VPWR sky130_fd_sc_hd__decap_3
XFILLER_0_19_22 VPWR VGND VPWR VGND sky130_ef_sc_hd__decap_12
XFILLER_0_19_11 VGND VGND VPWR VPWR sky130_fd_sc_hd__fill_2
X_255_ net5 _165_ VGND VGND VPWR VPWR _013_ sky130_fd_sc_hd__or2_1
X_324_ _104_ _106_ _151_ _075_ _076_ VGND VGND VPWR VPWR _077_ sky130_fd_sc_hd__a311o_1
X_186_ net9 net10 net3 net4 VGND VGND VPWR VPWR _114_ sky130_fd_sc_hd__and4_2
XTAP_TAPCELL_ROW_0_61 VGND VPWR sky130_fd_sc_hd__tapvpwrvgnd_1
XFILLER_0_18_174 VGND VGND VPWR VPWR sky130_fd_sc_hd__decap_8
XPHY_EDGE_ROW_3_Left_31 VGND VGND VPWR VPWR sky130_fd_sc_hd__decap_3
XFILLER_0_24_122 VPWR VGND VPWR VGND sky130_ef_sc_hd__decap_12
X_238_ net5 _165_ VGND VGND VPWR VPWR _166_ sky130_fd_sc_hd__nand2_4
XFILLER_0_1_55 VGND VGND VPWR VPWR sky130_fd_sc_hd__fill_1
X_307_ _112_ _118_ _058_ _061_ VGND VGND VPWR VPWR net20 sky130_fd_sc_hd__a31o_1
XFILLER_0_15_188 VGND VGND VPWR VPWR sky130_fd_sc_hd__fill_2
XFILLER_0_21_169 VGND VGND VPWR VPWR sky130_fd_sc_hd__decap_4
XFILLER_0_21_103 VGND VGND VPWR VPWR sky130_fd_sc_hd__fill_2
XFILLER_0_16_23 VGND VGND VPWR VPWR sky130_fd_sc_hd__decap_4
XFILLER_0_18_3 VPWR VGND VPWR VGND sky130_ef_sc_hd__decap_12
XFILLER_0_12_147 VGND VGND VPWR VPWR sky130_fd_sc_hd__fill_1
Xoutput25 net25 VGND VGND VPWR VPWR OUT[5] sky130_fd_sc_hd__buf_2
XFILLER_0_27_33 VPWR VGND VPWR VGND sky130_ef_sc_hd__decap_12
XFILLER_0_27_22 VGND VGND VPWR VPWR sky130_fd_sc_hd__decap_6
XFILLER_0_4_144 VPWR VGND VPWR VGND sky130_ef_sc_hd__decap_12
XFILLER_0_4_188 VGND VGND VPWR VPWR sky130_fd_sc_hd__fill_2
XFILLER_0_7_54 VGND VGND VPWR VPWR sky130_fd_sc_hd__fill_2
XFILLER_0_7_65 VGND VGND VPWR VPWR sky130_fd_sc_hd__decap_3
XFILLER_0_7_76 VGND VGND VPWR VPWR sky130_fd_sc_hd__decap_4
XFILLER_0_7_3 VPWR VGND VPWR VGND sky130_ef_sc_hd__decap_12
XTAP_TAPCELL_ROW_14_101 VGND VPWR sky130_fd_sc_hd__tapvpwrvgnd_1
XFILLER_0_1_125 VPWR VGND VPWR VGND sky130_ef_sc_hd__decap_12
XFILLER_0_1_103 VGND VGND VPWR VPWR sky130_fd_sc_hd__decap_8
X_340_ _090_ _156_ VGND VGND VPWR VPWR _091_ sky130_fd_sc_hd__and2b_1
X_271_ net7 _026_ VGND VGND VPWR VPWR _028_ sky130_fd_sc_hd__nor2_1
X_185_ _103_ net3 net4 _112_ VGND VGND VPWR VPWR _113_ sky130_fd_sc_hd__a22oi_4
X_323_ _104_ _153_ VGND VGND VPWR VPWR _076_ sky130_fd_sc_hd__nor2_1
X_254_ _107_ _010_ VGND VGND VPWR VPWR _012_ sky130_fd_sc_hd__nor2_2
XFILLER_0_10_14 VGND VGND VPWR VPWR sky130_fd_sc_hd__fill_2
XFILLER_0_19_34 VGND VGND VPWR VPWR sky130_fd_sc_hd__decap_4
XFILLER_0_24_189 VGND VGND VPWR VPWR sky130_fd_sc_hd__fill_1
XFILLER_0_24_134 VGND VGND VPWR VPWR sky130_fd_sc_hd__decap_6
XFILLER_0_21_57 VPWR VGND VPWR VGND sky130_ef_sc_hd__decap_12
X_306_ _118_ _153_ _060_ VGND VGND VPWR VPWR _061_ sky130_fd_sc_hd__o21ai_1
X_237_ net13 _164_ VGND VGND VPWR VPWR _165_ sky130_fd_sc_hd__xnor2_2
XFILLER_0_15_145 VPWR VGND VPWR VGND sky130_ef_sc_hd__decap_12
XFILLER_0_15_101 VGND VGND VPWR VPWR sky130_fd_sc_hd__decap_8
XFILLER_0_1_67 VPWR VGND VPWR VGND sky130_ef_sc_hd__decap_12
XFILLER_0_16_35 VGND VGND VPWR VPWR sky130_fd_sc_hd__fill_1
XFILLER_0_20_170 VPWR VGND VPWR VGND sky130_ef_sc_hd__decap_12
XFILLER_0_12_126 VGND VGND VPWR VPWR sky130_fd_sc_hd__fill_1
XPHY_EDGE_ROW_1_Right_1 VGND VGND VPWR VPWR sky130_fd_sc_hd__decap_3
Xoutput26 net26 VGND VGND VPWR VPWR OUT[6] sky130_fd_sc_hd__clkbuf_4
XFILLER_0_11_181 VGND VGND VPWR VPWR sky130_fd_sc_hd__decap_8
XFILLER_0_27_89 VPWR VGND VPWR VGND sky130_ef_sc_hd__decap_12
XFILLER_0_27_45 VGND VGND VPWR VPWR sky130_fd_sc_hd__decap_6
XTAP_TAPCELL_ROW_17_110 VGND VPWR sky130_fd_sc_hd__tapvpwrvgnd_1
XFILLER_0_4_156 VPWR VGND VPWR VGND sky130_ef_sc_hd__decap_12
XTAP_TAPCELL_ROW_14_102 VGND VPWR sky130_fd_sc_hd__tapvpwrvgnd_1
XFILLER_0_1_137 VGND VGND VPWR VPWR sky130_fd_sc_hd__decap_8
X_270_ net7 _026_ VGND VGND VPWR VPWR _027_ sky130_fd_sc_hd__and2_4
XFILLER_0_4_23 VGND VGND VPWR VPWR sky130_fd_sc_hd__fill_2
X_322_ _104_ _106_ _156_ _074_ VGND VGND VPWR VPWR _075_ sky130_fd_sc_hd__o22a_1
X_184_ net9 VGND VGND VPWR VPWR _112_ sky130_fd_sc_hd__buf_4
XFILLER_0_19_46 VGND VGND VPWR VPWR sky130_fd_sc_hd__decap_8
XFILLER_0_19_57 VGND VGND VPWR VPWR sky130_fd_sc_hd__decap_8
X_253_ _107_ _010_ VGND VGND VPWR VPWR _011_ sky130_fd_sc_hd__nand2_2
XFILLER_0_10_59 VPWR VGND VPWR VGND sky130_ef_sc_hd__decap_12
XFILLER_0_18_154 VGND VGND VPWR VPWR sky130_fd_sc_hd__fill_1
XFILLER_0_18_121 VPWR VGND VPWR VGND sky130_ef_sc_hd__decap_12
XFILLER_0_21_69 VGND VGND VPWR VPWR sky130_fd_sc_hd__decap_4
X_305_ _112_ _118_ _155_ _059_ VGND VGND VPWR VPWR _060_ sky130_fd_sc_hd__a31o_1
X_236_ net11 net12 _162_ net29 VGND VGND VPWR VPWR _164_ sky130_fd_sc_hd__o31a_2
XFILLER_0_15_157 VGND VGND VPWR VPWR sky130_fd_sc_hd__decap_8
XFILLER_0_15_113 VGND VGND VPWR VPWR sky130_fd_sc_hd__decap_8
XFILLER_0_1_79 VPWR VGND VPWR VGND sky130_ef_sc_hd__decap_12
XFILLER_0_1_57 VGND VGND VPWR VPWR sky130_fd_sc_hd__decap_3
X_219_ _128_ _138_ _146_ VGND VGND VPWR VPWR _147_ sky130_fd_sc_hd__a21oi_1
XFILLER_0_20_182 VGND VGND VPWR VPWR sky130_fd_sc_hd__decap_3
XFILLER_0_12_138 VGND VGND VPWR VPWR sky130_fd_sc_hd__fill_2
Xoutput27 net27 VGND VGND VPWR VPWR OUT[7] sky130_fd_sc_hd__buf_2
XTAP_TAPCELL_ROW_17_111 VGND VPWR sky130_fd_sc_hd__tapvpwrvgnd_1
XPHY_EDGE_ROW_24_Right_24 VGND VGND VPWR VPWR sky130_fd_sc_hd__decap_3
XFILLER_0_23_3 VGND VGND VPWR VPWR sky130_fd_sc_hd__fill_1
XPHY_EDGE_ROW_15_Right_15 VGND VGND VPWR VPWR sky130_fd_sc_hd__decap_3
XFILLER_0_4_168 VPWR VGND VPWR VGND sky130_ef_sc_hd__decap_12
XTAP_TAPCELL_ROW_14_103 VGND VPWR sky130_fd_sc_hd__tapvpwrvgnd_1
XFILLER_0_13_15 VPWR VGND VPWR VGND sky130_ef_sc_hd__decap_12
XPHY_EDGE_ROW_19_Left_47 VGND VGND VPWR VPWR sky130_fd_sc_hd__decap_3
XFILLER_0_4_57 VGND VGND VPWR VPWR sky130_fd_sc_hd__decap_4
X_183_ net2 net11 VGND VGND VPWR VPWR _111_ sky130_fd_sc_hd__nand2_2
X_321_ _104_ _106_ _158_ VGND VGND VPWR VPWR _074_ sky130_fd_sc_hd__a21oi_1
X_252_ _119_ _009_ VGND VGND VPWR VPWR _010_ sky130_fd_sc_hd__xnor2_2
XFILLER_0_10_49 VGND VGND VPWR VPWR sky130_fd_sc_hd__fill_2
XFILLER_0_18_133 VGND VGND VPWR VPWR sky130_fd_sc_hd__decap_6
X_304_ _112_ _118_ _099_ _150_ VGND VGND VPWR VPWR _059_ sky130_fd_sc_hd__o211ai_2
XFILLER_0_18_188 VGND VGND VPWR VPWR sky130_fd_sc_hd__fill_2
X_235_ net17 net18 net19 VGND VGND VPWR VPWR _163_ sky130_fd_sc_hd__nand3b_4
XFILLER_0_11_81 VPWR VGND VPWR VGND sky130_ef_sc_hd__decap_12
XFILLER_0_21_128 VGND VGND VPWR VPWR sky130_fd_sc_hd__decap_4
XPHY_EDGE_ROW_7_Left_35 VGND VGND VPWR VPWR sky130_fd_sc_hd__decap_3
XFILLER_0_20_161 VGND VGND VPWR VPWR sky130_fd_sc_hd__fill_2
X_218_ net28 _145_ VGND VGND VPWR VPWR _146_ sky130_fd_sc_hd__or2b_1
XFILLER_0_11_150 VPWR VGND VPWR VGND sky130_ef_sc_hd__decap_12
XTAP_TAPCELL_ROW_17_112 VGND VPWR sky130_fd_sc_hd__tapvpwrvgnd_1
XFILLER_0_17_91 VPWR VGND VPWR VGND sky130_ef_sc_hd__decap_12
XFILLER_0_16_3 VGND VGND VPWR VPWR sky130_fd_sc_hd__decap_4
XFILLER_0_4_103 VPWR VGND VPWR VGND sky130_ef_sc_hd__decap_12
XFILLER_0_7_57 VGND VGND VPWR VPWR sky130_fd_sc_hd__decap_8
XFILLER_0_13_27 VPWR VGND VPWR VGND sky130_ef_sc_hd__decap_12
XPHY_EDGE_ROW_20_Left_48 VGND VGND VPWR VPWR sky130_fd_sc_hd__decap_3
XFILLER_0_5_3 VPWR VGND VPWR VGND sky130_ef_sc_hd__decap_12
X_320_ _132_ _133_ _100_ VGND VGND VPWR VPWR _073_ sky130_fd_sc_hd__o21ai_1
X_251_ _106_ _162_ net30 VGND VGND VPWR VPWR _009_ sky130_fd_sc_hd__o21a_1
X_182_ _105_ _108_ _109_ VGND VGND VPWR VPWR _110_ sky130_fd_sc_hd__o21ai_4
XFILLER_0_27_145 VPWR VGND VPWR VGND sky130_ef_sc_hd__decap_12
XFILLER_0_27_101 VGND VGND VPWR VPWR sky130_fd_sc_hd__decap_8
XFILLER_0_25_91 VGND VGND VPWR VPWR sky130_fd_sc_hd__decap_3
XFILLER_0_24_159 VPWR VGND VPWR VGND sky130_ef_sc_hd__decap_12
X_303_ _100_ _151_ VGND VGND VPWR VPWR _058_ sky130_fd_sc_hd__or2_1
XPHY_EDGE_ROW_23_Left_51 VGND VGND VPWR VPWR sky130_fd_sc_hd__decap_3
X_234_ net9 net10 VGND VGND VPWR VPWR _162_ sky130_fd_sc_hd__or2_4
XFILLER_0_1_15 VPWR VGND VPWR VGND sky130_ef_sc_hd__decap_12
XFILLER_0_11_93 VGND VGND VPWR VPWR sky130_fd_sc_hd__decap_4
X_217_ _139_ _140_ _143_ VGND VGND VPWR VPWR _145_ sky130_fd_sc_hd__o21ai_1
XFILLER_0_16_27 VGND VGND VPWR VPWR sky130_fd_sc_hd__fill_1
XFILLER_0_22_70 VPWR VGND VPWR VGND sky130_ef_sc_hd__decap_12
XFILLER_0_7_167 VGND VGND VPWR VPWR sky130_fd_sc_hd__fill_1
XFILLER_0_7_189 VGND VGND VPWR VPWR sky130_fd_sc_hd__fill_1
XFILLER_0_11_162 VGND VGND VPWR VPWR sky130_fd_sc_hd__decap_6
XFILLER_0_4_115 VGND VGND VPWR VPWR sky130_fd_sc_hd__fill_1
XFILLER_0_3_181 VGND VGND VPWR VPWR sky130_fd_sc_hd__fill_1
XPHY_EDGE_ROW_5_Right_5 VGND VGND VPWR VPWR sky130_fd_sc_hd__decap_3
XFILLER_0_13_39 VGND VGND VPWR VPWR sky130_fd_sc_hd__decap_8
XTAP_TAPCELL_ROW_20_119 VGND VPWR sky130_fd_sc_hd__tapvpwrvgnd_1
XFILLER_0_0_184 VGND VGND VPWR VPWR sky130_fd_sc_hd__decap_6
XFILLER_0_24_49 VGND VGND VPWR VPWR sky130_fd_sc_hd__fill_2
XFILLER_0_24_27 VGND VGND VPWR VPWR sky130_fd_sc_hd__fill_1
XFILLER_0_14_71 VPWR VGND VPWR VGND sky130_ef_sc_hd__decap_12
XFILLER_0_14_60 VGND VGND VPWR VPWR sky130_fd_sc_hd__decap_3
XFILLER_0_4_15 VGND VGND VPWR VPWR sky130_fd_sc_hd__decap_8
XFILLER_0_19_38 VGND VGND VPWR VPWR sky130_fd_sc_hd__fill_1
X_250_ _005_ _002_ _007_ VGND VGND VPWR VPWR _008_ sky130_fd_sc_hd__o21ai_4
X_181_ _104_ _106_ net4 _103_ VGND VGND VPWR VPWR _109_ sky130_fd_sc_hd__a22o_1
XFILLER_0_10_29 VPWR VGND VPWR VGND sky130_ef_sc_hd__decap_12
XTAP_TAPCELL_ROW_9_86 VGND VPWR sky130_fd_sc_hd__tapvpwrvgnd_1
XFILLER_0_18_146 VGND VGND VPWR VPWR sky130_fd_sc_hd__decap_8
X_233_ net14 net6 _151_ _154_ _160_ VGND VGND VPWR VPWR _161_ sky130_fd_sc_hd__a311o_1
X_302_ _023_ _051_ _052_ _057_ VGND VGND VPWR VPWR net27 sky130_fd_sc_hd__a31o_1
XFILLER_0_1_27 VPWR VGND VPWR VGND sky130_ef_sc_hd__decap_12
XFILLER_0_14_160 VPWR VGND VPWR VGND sky130_ef_sc_hd__decap_12
XFILLER_0_22_82 VGND VGND VPWR VPWR sky130_fd_sc_hd__fill_2
XFILLER_0_20_141 VPWR VGND VPWR VGND sky130_ef_sc_hd__decap_12
XFILLER_0_12_108 VPWR VGND VPWR VGND sky130_ef_sc_hd__decap_12
X_216_ _139_ _140_ _143_ VGND VGND VPWR VPWR _144_ sky130_fd_sc_hd__nor3_1
XFILLER_0_7_113 VPWR VGND VPWR VGND sky130_ef_sc_hd__decap_12
XFILLER_0_7_15 VPWR VGND VPWR VGND sky130_ef_sc_hd__decap_12
XTAP_TAPCELL_ROW_23_128 VGND VPWR sky130_fd_sc_hd__tapvpwrvgnd_1
XPHY_EDGE_ROW_20_Right_20 VGND VGND VPWR VPWR sky130_fd_sc_hd__decap_3
XPHY_EDGE_ROW_11_Right_11 VGND VGND VPWR VPWR sky130_fd_sc_hd__decap_3
XFILLER_0_0_141 VPWR VGND VPWR VGND sky130_ef_sc_hd__decap_12
XFILLER_0_8_80 VGND VGND VPWR VPWR sky130_fd_sc_hd__decap_4