*SPEF "ieee 1481-1999"
*DESIGN "zero2five_counter"
*DATE "10:43:36 Sunday May 25, 2025"
*VENDOR "The OpenROAD Project"
*PROGRAM "OpenROAD"
*VERSION "b16bda7e82721d10566ff7e2b68f1ff0be9f9e38"
*DESIGN_FLOW "NAME_SCOPE LOCAL" "PIN_CAP NONE"
*DIVIDER /
*DELIMITER :
*BUS_DELIMITER []
*T_UNIT 1 NS
*C_UNIT 1 PF
*R_UNIT 1 OHM
*L_UNIT 1 HENRY

*NAME_MAP
*3 net13
*4 clk
*5 count[0]
*6 count[1]
*7 count[2]
*8 count[3]
*9 rst
*10 seg[0]
*11 seg[1]
*12 seg[2]
*13 seg[3]
*14 seg[4]
*15 seg[5]
*16 seg[6]
*17 _00_
*18 _01_
*19 _02_
*20 _03_
*21 _04_
*22 _05_
*23 _06_
*24 _07_
*25 _08_
*26 _09_
*27 _10_
*28 _11_
*29 _12_
*30 _13_
*31 _14_
*32 _15_
*33 _16_
*34 _17_
*35 clknet_0_clk
*36 clknet_1_0__leaf_clk
*37 clknet_1_1__leaf_clk
*38 net1
*39 net10
*40 net11
*41 net12
*42 net2
*43 net3
*44 net4
*45 net5
*46 net6
*47 net7
*48 net8
*49 net9
*50 FILLER_0_0_15
*51 FILLER_0_0_20
*52 FILLER_0_0_3
*53 FILLER_0_0_34
*54 FILLER_0_10_21
*55 FILLER_0_10_29
*56 FILLER_0_10_3
*57 FILLER_0_10_9
*58 FILLER_0_11_19
*59 FILLER_0_11_45
*60 FILLER_0_11_7
*61 FILLER_0_12_3
*62 FILLER_0_12_37
*63 FILLER_0_1_15
*64 FILLER_0_1_3
*65 FILLER_0_1_37
*66 FILLER_0_1_9
*67 FILLER_0_2_19
*68 FILLER_0_2_27
*69 FILLER_0_2_29
*70 FILLER_0_2_3
*71 FILLER_0_2_40
*72 FILLER_0_3_19
*73 FILLER_0_3_27
*74 FILLER_0_3_3
*75 FILLER_0_4_15
*76 FILLER_0_4_27
*77 FILLER_0_4_29
*78 FILLER_0_4_3
*79 FILLER_0_4_41
*80 FILLER_0_5_13
*81 FILLER_0_5_3
*82 FILLER_0_5_9
*83 FILLER_0_6_23
*84 FILLER_0_6_27
*85 FILLER_0_6_3
*86 FILLER_0_6_37
*87 FILLER_0_7_3
*88 FILLER_0_7_37
*89 FILLER_0_8_26
*90 FILLER_0_8_32
*91 FILLER_0_8_44
*92 FILLER_0_9_11
*93 FILLER_0_9_23
*94 FILLER_0_9_46
*95 PHY_EDGE_ROW_0_Left_13
*96 PHY_EDGE_ROW_0_Right_0
*97 PHY_EDGE_ROW_10_Left_23
*98 PHY_EDGE_ROW_10_Right_10
*99 PHY_EDGE_ROW_11_Left_24
*100 PHY_EDGE_ROW_11_Right_11
*101 PHY_EDGE_ROW_12_Left_25
*102 PHY_EDGE_ROW_12_Right_12
*103 PHY_EDGE_ROW_1_Left_14
*104 PHY_EDGE_ROW_1_Right_1
*105 PHY_EDGE_ROW_2_Left_15
*106 PHY_EDGE_ROW_2_Right_2
*107 PHY_EDGE_ROW_3_Left_16
*108 PHY_EDGE_ROW_3_Right_3
*109 PHY_EDGE_ROW_4_Left_17
*110 PHY_EDGE_ROW_4_Right_4
*111 PHY_EDGE_ROW_5_Left_18
*112 PHY_EDGE_ROW_5_Right_5
*113 PHY_EDGE_ROW_6_Left_19
*114 PHY_EDGE_ROW_6_Right_6
*115 PHY_EDGE_ROW_7_Left_20
*116 PHY_EDGE_ROW_7_Right_7
*117 PHY_EDGE_ROW_8_Left_21
*118 PHY_EDGE_ROW_8_Right_8
*119 PHY_EDGE_ROW_9_Left_22
*120 PHY_EDGE_ROW_9_Right_9
*121 TAP_TAPCELL_ROW_0_26
*122 TAP_TAPCELL_ROW_10_31
*123 TAP_TAPCELL_ROW_12_32
*124 TAP_TAPCELL_ROW_2_27
*125 TAP_TAPCELL_ROW_4_28
*126 TAP_TAPCELL_ROW_6_29
*127 TAP_TAPCELL_ROW_8_30
*128 _18_
*129 _19_
*130 _20_
*131 _21_
*132 _22_
*133 _23_
*134 _24_
*135 _25_
*136 _26_
*137 _27_
*138 _28_
*139 _29_
*140 _30_
*141 _31_
*142 _32_
*143 _33_
*144 _34_
*145 _35_
*146 _36_
*147 _37_
*148 _38_
*149 _39_
*150 _40_
*151 _41_
*152 _42_
*153 _43_
*154 _44_
*155 _45_
*156 _47_
*157 clkbuf_0_clk
*158 clkbuf_1_0__f_clk
*159 clkbuf_1_1__f_clk
*160 input1
*161 output10
*162 output11
*163 output12
*164 output2
*165 output3
*166 output4
*167 output5
*168 output6
*169 output7
*170 output8
*171 output9
*172 zero2five_counter_13

*PORTS
an O
clk I
count[0] O
count[1] O
count[2] O
count[3] O
rst I
seg[0] O
seg[1] O
seg[2] O
seg[3] O
seg[4] O
seg[5] O
seg[6] O

*D_NET *3 0.000448456
*CONN
*P an O
*I *172:LO O *D sky130_fd_sc_hd__conb_1
*CAP
1 an 0.000209937
2 *172:LO 0.000209937
3 an count[0] 0
4 an seg[6] 0
5 an *39:8 2.8583e-05
*RES
1 *172:LO an 18.6579 
*END

*D_NET *4 0.00654613
*CONN
*P clk I
*I *157:A I *D sky130_fd_sc_hd__clkbuf_16
*CAP
1 clk 0.00317255
2 *157:A 0.00317255
3 *157:A *146:B1_N 4.51009e-05
4 *157:A *147:A1 0
5 *157:A *150:A 4.19624e-06
6 *157:A *30:10 0.000118291
7 *157:A *42:94 3.34366e-05
*RES
1 clk *157:A 31.1082 
*END

*D_NET *5 0.000383343
*CONN
*P count[0] O
*I *164:X O *D sky130_fd_sc_hd__buf_1
*CAP
1 count[0] 0.000191671
2 *164:X 0.000191671
3 count[0] count[1] 0
4 count[0] *145:A 0
5 an count[0] 0
*RES
1 *164:X count[0] 18.0508 
*END

*D_NET *6 0.000393558
*CONN
*P count[1] O
*I *165:X O *D sky130_fd_sc_hd__buf_1
*CAP
1 count[1] 0.000196779
2 *165:X 0.000196779
3 count[1] count[2] 0
4 count[1] *134:B 0
5 count[0] count[1] 0
*RES
1 *165:X count[1] 18.0508 
*END

*D_NET *7 0.000526111
*CONN
*P count[2] O
*I *166:X O *D sky130_fd_sc_hd__buf_1
*CAP
1 count[2] 0.000241573
2 *166:X 0.000241573
3 count[2] count[3] 4.29654e-05
4 count[1] count[2] 0
*RES
1 *166:X count[2] 19.2651 
*END

*D_NET *8 0.00102531
*CONN
*P count[3] O
*I *167:X O *D sky130_fd_sc_hd__buf_1
*CAP
1 count[3] 0.00049117
2 *167:X 0.00049117
3 count[2] count[3] 4.29654e-05
*RES
1 *167:X count[3] 23.1241 
*END

*D_NET *9 0.000664894
*CONN
*P rst I
*I *160:A I *D sky130_fd_sc_hd__clkbuf_2
*CAP
1 rst 0.000332447
2 *160:A 0.000332447
*RES
1 rst *160:A 21.1946 
*END

*D_NET *10 0.00100179
*CONN
*P seg[0] O
*I *168:X O *D sky130_fd_sc_hd__buf_1
*CAP
1 seg[0] 0.000490912
2 *168:X 0.000490912
3 seg[0] seg[1] 1.99644e-05
*RES
1 *168:X seg[0] 22.517 
*END

*D_NET *11 0.000802588
*CONN
*P seg[1] O
*I *169:X O *D sky130_fd_sc_hd__buf_1
*CAP
1 seg[1] 0.000391312
2 *169:X 0.000391312
3 seg[1] seg[2] 0
4 seg[0] seg[1] 1.99644e-05
*RES
1 *169:X seg[1] 19.0903 
*END

*D_NET *12 0.000554831
*CONN
*P seg[2] O
*I *170:X O *D sky130_fd_sc_hd__buf_1
*CAP
1 seg[2] 0.0002472
2 *170:X 0.0002472
3 seg[2] seg[3] 0
4 seg[2] *163:A 6.043e-05
5 seg[1] seg[2] 0
*RES
1 *170:X seg[2] 19.2651 
*END

*D_NET *13 0.000403084
*CONN
*P seg[3] O
*I *171:X O *D sky130_fd_sc_hd__buf_1
*CAP
1 seg[3] 0.000195444
2 *171:X 0.000195444
3 seg[3] seg[4] 0
4 seg[3] *163:A 1.21955e-05
5 seg[2] seg[3] 0
*RES
1 *171:X seg[3] 18.0508 
*END

*D_NET *14 0.00050881
*CONN
*P seg[4] O
*I *161:X O *D sky130_fd_sc_hd__buf_1
*CAP
1 seg[4] 0.00022845
2 *161:X 0.00022845
3 seg[4] seg[5] 0
4 seg[4] *163:A 5.19098e-05
5 seg[3] seg[4] 0
*RES
1 *161:X seg[4] 18.9615 
*END

*D_NET *15 0.000394044
*CONN
*P seg[5] O
*I *162:X O *D sky130_fd_sc_hd__buf_1
*CAP
1 seg[5] 0.000190924
2 *162:X 0.000190924
3 seg[5] seg[6] 0
4 seg[5] *163:A 1.21955e-05
5 seg[4] seg[5] 0
*RES
1 *162:X seg[5] 18.0508 
*END

*D_NET *16 0.000547139
*CONN
*P seg[6] O
*I *163:X O *D sky130_fd_sc_hd__buf_1
*CAP
1 seg[6] 0.000253669
2 *163:X 0.000253669
3 seg[6] *39:8 3.98018e-05
4 an seg[6] 0
5 seg[5] seg[6] 0
*RES
1 *163:X seg[6] 19.2651 
*END

*D_NET *17 0.000217545
*CONN
*I *152:D I *D sky130_fd_sc_hd__dfrtp_4
*I *129:Y O *D sky130_fd_sc_hd__nor2_1
*CAP
1 *152:D 5.3078e-05
2 *129:Y 5.3078e-05
3 *152:D *147:A1 0
4 *152:D *30:10 6.97972e-05
5 *152:D *42:88 4.15914e-05
*RES
1 *129:Y *152:D 29.2429 
*END

*D_NET *18 0.00189921
*CONN
*I *153:D I *D sky130_fd_sc_hd__dfrtp_4
*I *130:X O *D sky130_fd_sc_hd__xor2_1
*CAP
1 *153:D 0.000384971
2 *130:X 0.000384971
3 *153:D *131:B 5.52238e-05
4 *153:D *148:A 5.68713e-05
5 *153:D *152:RESET_B 0.000482551
6 *153:D *158:A 0
7 *153:D *36:10 0.000139913
8 *153:D *45:24 0.000394712
*RES
1 *130:X *153:D 38.0464 
*END

*D_NET *19 0.0010063
*CONN
*I *154:D I *D sky130_fd_sc_hd__dfrtp_4
*I *135:X O *D sky130_fd_sc_hd__clkbuf_1
*CAP
1 *154:D 0.000286146
2 *135:X 0.000286146
3 *154:D *146:B1_N 4.48583e-05
4 *154:D *170:A 5.33005e-05
5 *154:D *44:12 0.000137983
6 *154:D *44:35 0.000155321
7 *154:D *45:16 4.25427e-05
*RES
1 *135:X *154:D 32.0464 
*END

*D_NET *20 0.0036771
*CONN
*I *155:D I *D sky130_fd_sc_hd__dfrtp_4
*I *136:Y O *D sky130_fd_sc_hd__xnor2_1
*CAP
1 *155:D 0.000791953
2 *136:Y 0.000791953
3 *155:D *128:A 0.000453104
4 *155:D *135:A 0.000372144
5 *155:D *150:A 3.14163e-05
6 *155:D *153:RESET_B 0.00056341
7 *155:D *155:CLK 6.47889e-05
8 *155:D *158:A 0.000551823
9 *155:D *45:12 3.65069e-05
10 *155:D *45:100 2.00038e-05
*RES
1 *136:Y *155:D 47.2696 
*END

*D_NET *21 0.0050816
*CONN
*I *152:RESET_B I *D sky130_fd_sc_hd__dfrtp_4
*I *148:Y O *D sky130_fd_sc_hd__inv_2
*CAP
1 *152:RESET_B 0.000982872
2 *148:Y 0.000982872
3 *152:RESET_B *128:A 1.27784e-05
4 *152:RESET_B *135:A 0.0003275
5 *152:RESET_B *144:B 3.69697e-05
6 *152:RESET_B *158:A 0.000186669
7 *152:RESET_B *159:A 0
8 *152:RESET_B *162:A 0.000146474
9 *152:RESET_B *169:A 0.000332779
10 *152:RESET_B *36:10 0.000230694
11 *152:RESET_B *42:14 0.000187499
12 *152:RESET_B *42:88 1.66258e-05
13 *152:RESET_B *44:37 0.000207054
14 *152:RESET_B *44:39 0.000537502
15 *152:RESET_B *44:125 0.000410759
16 *153:D *152:RESET_B 0.000482551
*RES
1 *148:Y *152:RESET_B 47.2018 
*END

*D_NET *22 0.00298938
*CONN
*I *153:RESET_B I *D sky130_fd_sc_hd__dfrtp_4
*I *149:Y O *D sky130_fd_sc_hd__inv_2
*CAP
1 *153:RESET_B 0.000838681
2 *149:Y 0.000838681
3 *153:RESET_B *134:A 0
4 *153:RESET_B *134:B 2.95726e-05
5 *153:RESET_B *134:C 9.78801e-05
6 *153:RESET_B *135:A 0.000102435
7 *153:RESET_B *158:A 0.000397141
8 *153:RESET_B *167:A 0
9 *153:RESET_B *44:86 0.000121573
10 *153:RESET_B *45:24 0
11 *155:D *153:RESET_B 0.00056341
*RES
1 *149:Y *153:RESET_B 37.4607 
*END

*D_NET *23 0.0011504
*CONN
*I *154:RESET_B I *D sky130_fd_sc_hd__dfrtp_4
*I *150:Y O *D sky130_fd_sc_hd__inv_2
*CAP
1 *154:RESET_B 0.000352656
2 *150:Y 0.000352656
3 *154:RESET_B *30:10 5.01117e-05
4 *154:RESET_B *38:12 0
5 *154:RESET_B *45:12 0.000310292
6 *154:RESET_B *45:100 8.46829e-05
*RES
1 *150:Y *154:RESET_B 23.4607 
*END

*D_NET *24 0.00314364
*CONN
*I *155:RESET_B I *D sky130_fd_sc_hd__dfrtp_4
*I *151:Y O *D sky130_fd_sc_hd__inv_2
*CAP
1 *155:RESET_B 0.00102239
2 *151:Y 0.00102239
3 *155:RESET_B *144:A 5.33005e-05
4 *155:RESET_B *144:C 0.0001912
5 *155:RESET_B *145:A 5.33005e-05
6 *155:RESET_B *146:B1_N 2.14757e-05
7 *155:RESET_B *147:A2 0.00012401
8 *155:RESET_B *151:A 5.52302e-05
9 *155:RESET_B *155:CLK 9.33296e-05
10 *155:RESET_B *171:A 0.000124249
11 *155:RESET_B *25:8 0.000270326
12 *155:RESET_B *38:10 0
13 *155:RESET_B *38:12 0
14 *155:RESET_B *45:12 9.25587e-05
15 *155:RESET_B *45:100 1.98839e-05
*RES
1 *151:Y *155:RESET_B 34.6482 
*END

*D_NET *25 0.00408199
*CONN
*I *147:B1_N I *D sky130_fd_sc_hd__o21ba_1
*I *129:B I *D sky130_fd_sc_hd__nor2_1
*I *146:B1_N I *D sky130_fd_sc_hd__o21ba_1
*I *128:Y O *D sky130_fd_sc_hd__nor3b_1
*CAP
1 *147:B1_N 0.000267953
2 *129:B 0
3 *146:B1_N 0.000391121
4 *128:Y 0
5 *25:8 0.000473536
6 *25:4 0.000350368
7 *146:B1_N *146:A2 0.000183015
8 *146:B1_N *147:A1 0
9 *146:B1_N *150:A 0
10 *146:B1_N *154:CLK 0.00014576
11 *146:B1_N *171:A 5.52302e-05
12 *146:B1_N *30:10 0.000753576
13 *146:B1_N *42:94 5.53499e-05
14 *146:B1_N *43:22 0.000184945
15 *146:B1_N *45:16 0
16 *147:B1_N *147:A1 0.000364967
17 *147:B1_N *147:A2 3.99614e-06
18 *147:B1_N *159:A 0.000302437
19 *147:B1_N *45:100 3.34366e-05
20 *25:8 *171:A 0.000134539
21 *154:D *146:B1_N 4.48583e-05
22 *155:RESET_B *146:B1_N 2.14757e-05
23 *155:RESET_B *25:8 0.000270326
24 *157:A *146:B1_N 4.51009e-05
*RES
1 *128:Y *25:4 9.3 
2 *25:4 *25:8 3.01786 
3 *25:8 *146:B1_N 30.4429 
4 *25:8 *129:B 9.3 
5 *25:4 *147:B1_N 25.0679 
*END

*D_NET *26 0.00614232
*CONN
*I *134:A I *D sky130_fd_sc_hd__and3_1
*I *139:A I *D sky130_fd_sc_hd__nand3_1
*I *131:X O *D sky130_fd_sc_hd__or4b_1
*CAP
1 *134:A 0.000763724
2 *139:A 0.00113721
3 *131:X 0
4 *26:4 0.00190093
5 *134:A *131:C 0.000228784
6 *134:A *134:C 9.47456e-05
7 *134:A *140:A 2.65242e-05
8 *134:A *30:10 0
9 *134:A *45:24 1.52978e-05
10 *134:A *45:26 0.000312819
11 *134:A *45:39 0
12 *134:A *45:59 4.58976e-05
13 *139:A *139:B 5.52238e-05
14 *139:A *139:C 0
15 *139:A *31:10 0
16 *139:A *32:14 7.57869e-05
17 *139:A *42:102 0.00116534
18 *139:A *49:10 0.000320038
19 *153:RESET_B *134:A 0
*RES
1 *131:X *26:4 9.3 
2 *26:4 *139:A 43.6929 
3 *26:4 *134:A 32.1393 
*END

*D_NET *27 0.0044762
*CONN
*I *136:B I *D sky130_fd_sc_hd__xnor2_1
*I *134:B I *D sky130_fd_sc_hd__and3_1
*I *132:Y O *D sky130_fd_sc_hd__nand3_1
*CAP
1 *136:B 0.000113556
2 *134:B 0.000512617
3 *132:Y 0.000321597
4 *27:10 0.00094777
5 *134:B *135:A 0.000140933
6 *134:B *145:A 5.58941e-05
7 *134:B *166:A 0.000142272
8 *134:B *167:A 3.14193e-05
9 *134:B *42:18 3.17148e-05
10 *134:B *42:24 0.000173797
11 *136:B *164:A 5.33005e-05
12 *136:B *44:56 1.40306e-05
13 *27:10 *145:A 0.000776745
14 *27:10 *146:A2 0.000260574
15 *27:10 *162:A 9.60939e-05
16 *27:10 *42:16 0.000101545
17 *27:10 *42:18 0.000672771
18 count[1] *134:B 0
19 *153:RESET_B *134:B 2.95726e-05
*RES
1 *132:Y *27:10 26.2286 
2 *27:10 *134:B 22.7107 
3 *27:10 *136:B 15.5857 
*END

*D_NET *28 0.000358446
*CONN
*I *134:C I *D sky130_fd_sc_hd__and3_1
*I *133:X O *D sky130_fd_sc_hd__a21o_1
*CAP
1 *134:C 8.29101e-05
2 *133:X 8.29101e-05
3 *134:A *134:C 9.47456e-05
4 *153:RESET_B *134:C 9.78801e-05
*RES
1 *133:X *134:C 30.0464 
*END

*D_NET *29 0.00290864
*CONN
*I *135:A I *D sky130_fd_sc_hd__clkbuf_1
*I *134:X O *D sky130_fd_sc_hd__and3_1
*CAP
1 *135:A 0.000566217
2 *134:X 0.000566217
3 *135:A *128:A 0.00021559
4 *135:A *162:A 0.000148196
5 *135:A *167:A 0.000335915
6 *135:A *44:39 7.48474e-05
7 *135:A *44:86 5.86416e-05
8 *134:B *135:A 0.000140933
9 *152:RESET_B *135:A 0.0003275
10 *153:RESET_B *135:A 0.000102435
11 *155:D *135:A 0.000372144
*RES
1 *134:X *135:A 45.7786 
*END

*D_NET *30 0.00532013
*CONN
*I *139:B I *D sky130_fd_sc_hd__nand3_1
*I *137:X O *D sky130_fd_sc_hd__or4b_1
*CAP
1 *139:B 0.000343218
2 *137:X 0.00102629
3 *30:10 0.00136951
4 *139:B *147:A2 5.03772e-05
5 *139:B *37:10 0.000399316
6 *30:10 *147:A1 0
7 *30:10 *147:A2 1.08359e-05
8 *30:10 *149:A 0
9 *30:10 *154:CLK 9.29969e-05
10 *30:10 *155:CLK 0.000573852
11 *30:10 *36:10 0.000225983
12 *30:10 *37:10 0.000128146
13 *30:10 *38:12 0
14 *30:10 *42:88 0
15 *30:10 *45:24 0
16 *30:10 *45:39 5.26091e-05
17 *134:A *30:10 0
18 *139:A *139:B 5.52238e-05
19 *146:B1_N *30:10 0.000753576
20 *152:D *30:10 6.97972e-05
21 *154:RESET_B *30:10 5.01117e-05
22 *157:A *30:10 0.000118291
*RES
1 *137:X *30:10 43.925 
2 *30:10 *139:B 16.4071 
*END

*D_NET *31 0.004563
*CONN
*I *143:B1 I *D sky130_fd_sc_hd__o21ai_1
*I *139:C I *D sky130_fd_sc_hd__nand3_1
*I *141:B1_N I *D sky130_fd_sc_hd__a21bo_1
*I *138:Y O *D sky130_fd_sc_hd__a21oi_1
*CAP
1 *143:B1 7.62184e-05
2 *139:C 0.000303509
3 *141:B1_N 5.05962e-05
4 *138:Y 0
5 *31:10 0.00124619
6 *31:4 0.000968305
7 *139:C *49:10 0.000118784
8 *143:B1 *143:A2 5.33005e-05
9 *143:B1 *158:A 0.000146474
10 *143:B1 *33:10 7.8327e-05
11 *143:B1 *44:35 5.33005e-05
12 *31:10 *146:A2 0.000650878
13 *31:10 *162:A 0.000431857
14 *31:10 *32:14 0.000305037
15 *31:10 *43:22 3.28516e-05
16 *31:10 *43:28 4.73684e-05
17 *139:A *139:C 0
18 *139:A *31:10 0
*RES
1 *138:Y *31:4 9.3 
2 *31:4 *31:10 23.8393 
3 *31:10 *141:B1_N 14.3357 
4 *31:10 *139:C 19.9964 
5 *31:4 *143:B1 20.7821 
*END

*D_NET *32 0.00647478
*CONN
*I *147:A2 I *D sky130_fd_sc_hd__o21ba_1
*I *141:A2 I *D sky130_fd_sc_hd__a21bo_1
*I *140:X O *D sky130_fd_sc_hd__or2_1
*CAP
1 *147:A2 0.000642103
2 *141:A2 0
3 *140:X 0.000860338
4 *32:14 0.00150244
5 *147:A2 *147:A1 5.52238e-05
6 *147:A2 *155:CLK 0.000387432
7 *147:A2 *159:A 7.17235e-05
8 *147:A2 *169:A 0.000484225
9 *147:A2 *37:10 0.000117896
10 *147:A2 *38:10 0
11 *147:A2 *42:94 0.000558857
12 *32:14 *140:A 0
13 *32:14 *42:94 5.33005e-05
14 *32:14 *42:102 0.00117119
15 *32:14 *43:36 0
16 *32:14 *43:42 0
17 *139:A *32:14 7.57869e-05
18 *139:B *147:A2 5.03772e-05
19 *147:B1_N *147:A2 3.99614e-06
20 *155:RESET_B *147:A2 0.00012401
21 *30:10 *147:A2 1.08359e-05
22 *31:10 *32:14 0.000305037
*RES
1 *140:X *32:14 39.9607 
2 *32:14 *141:A2 9.3 
3 *32:14 *147:A2 35.8357 
*END

*D_NET *33 0.00424095
*CONN
*I *147:A1 I *D sky130_fd_sc_hd__o21ba_1
*I *143:A1 I *D sky130_fd_sc_hd__o21ai_1
*I *142:Y O *D sky130_fd_sc_hd__inv_2
*CAP
1 *147:A1 0.000458104
2 *143:A1 0
3 *142:Y 0.000915858
4 *33:10 0.00137396
5 *147:A1 *138:A2 2.31791e-05
6 *147:A1 *150:A 0.000148903
7 *147:A1 *158:A 4.34273e-05
8 *147:A1 *159:A 6.70206e-05
9 *147:A1 *42:88 4.94362e-05
10 *147:A1 *42:94 6.63569e-05
11 *147:A1 *45:16 5.41797e-05
12 *147:A1 *45:100 0.000193005
13 *33:10 *138:A2 0.000219734
14 *33:10 *158:A 6.96533e-05
15 *33:10 *45:16 2.26424e-05
16 *33:10 *45:24 3.69697e-05
17 *143:B1 *33:10 7.8327e-05
18 *146:B1_N *147:A1 0
19 *147:A2 *147:A1 5.52238e-05
20 *147:B1_N *147:A1 0.000364967
21 *152:D *147:A1 0
22 *157:A *147:A1 0
23 *30:10 *147:A1 0
*RES
1 *142:Y *33:10 26.1036 
2 *33:10 *143:A1 13.8 
3 *33:10 *147:A1 26.3 
*END

*D_NET *34 0.00341517
*CONN
*I *145:A I *D sky130_fd_sc_hd__buf_1
*I *144:X O *D sky130_fd_sc_hd__or3_1
*CAP
1 *145:A 0.000506846
2 *144:X 0.000506846
3 *145:A *151:A 0.00020112
4 *145:A *161:A 0.000109415
5 *145:A *170:A 0.000490143
6 *145:A *39:8 0.000312372
7 *145:A *42:14 0.000188703
8 *145:A *42:16 6.07328e-05
9 *145:A *43:14 0.000153047
10 count[0] *145:A 0
11 *134:B *145:A 5.58941e-05
12 *155:RESET_B *145:A 5.33005e-05
13 *27:10 *145:A 0.000776745
*RES
1 *144:X *145:A 47.0821 
*END

*D_NET *35 0.00530643
*CONN
*I *159:A I *D sky130_fd_sc_hd__clkbuf_16
*I *158:A I *D sky130_fd_sc_hd__clkbuf_16
*I *157:X O *D sky130_fd_sc_hd__clkbuf_16
*CAP
1 *159:A 0.000398267
2 *158:A 0.000627307
3 *157:X 0.000240471
4 *35:8 0.00126604
5 *158:A *128:A 0.000118557
6 *158:A *45:24 0
7 *158:A *45:100 0.000295137
8 *159:A *128:A 0.000121573
9 *159:A *144:B 2.28428e-05
10 *159:A *169:A 0
11 *159:A *45:100 0.000115474
12 *35:8 *151:A 3.80953e-06
13 *35:8 *169:A 0.000260574
14 *143:B1 *158:A 0.000146474
15 *147:A1 *158:A 4.34273e-05
16 *147:A1 *159:A 6.70206e-05
17 *147:A2 *159:A 7.17235e-05
18 *147:B1_N *159:A 0.000302437
19 *152:RESET_B *158:A 0.000186669
20 *152:RESET_B *159:A 0
21 *153:D *158:A 0
22 *153:RESET_B *158:A 0.000397141
23 *155:D *158:A 0.000551823
24 *33:10 *158:A 6.96533e-05
*RES
1 *157:X *35:8 16.8 
2 *35:8 *158:A 31.2286 
3 *35:8 *159:A 22.8357 
*END

*D_NET *36 0.0030215
*CONN
*I *154:CLK I *D sky130_fd_sc_hd__dfrtp_4
*I *153:CLK I *D sky130_fd_sc_hd__dfrtp_4
*I *158:X O *D sky130_fd_sc_hd__clkbuf_16
*CAP
1 *154:CLK 0.000326466
2 *153:CLK 0
3 *158:X 0.000563586
4 *36:10 0.000890052
5 *154:CLK *44:12 6.07152e-05
6 *154:CLK *44:35 0
7 *154:CLK *45:16 5.90322e-05
8 *154:CLK *45:24 6.26208e-05
9 *36:10 *45:24 0.000223677
10 *146:B1_N *154:CLK 0.00014576
11 *152:RESET_B *36:10 0.000230694
12 *153:D *36:10 0.000139913
13 *30:10 *154:CLK 9.29969e-05
14 *30:10 *36:10 0.000225983
*RES
1 *158:X *36:10 26.1929 
2 *36:10 *153:CLK 13.8 
3 *36:10 *154:CLK 20.8 
*END

*D_NET *37 0.00292241
*CONN
*I *152:CLK I *D sky130_fd_sc_hd__dfrtp_4
*I *155:CLK I *D sky130_fd_sc_hd__dfrtp_4
*I *159:X O *D sky130_fd_sc_hd__clkbuf_16
*CAP
1 *152:CLK 0
2 *155:CLK 0.000233405
3 *159:X 0.000309599
4 *37:10 0.000543004
5 *155:CLK *45:12 7.16452e-05
6 *139:B *37:10 0.000399316
7 *147:A2 *155:CLK 0.000387432
8 *147:A2 *37:10 0.000117896
9 *155:D *155:CLK 6.47889e-05
10 *155:RESET_B *155:CLK 9.33296e-05
11 *30:10 *155:CLK 0.000573852
12 *30:10 *37:10 0.000128146
*RES
1 *159:X *37:10 19.2643 
2 *37:10 *155:CLK 22.5679 
3 *37:10 *152:CLK 13.8 
*END

*D_NET *38 0.00800883
*CONN
*I *151:A I *D sky130_fd_sc_hd__inv_2
*I *150:A I *D sky130_fd_sc_hd__inv_2
*I *148:A I *D sky130_fd_sc_hd__inv_2
*I *149:A I *D sky130_fd_sc_hd__inv_2
*I *160:X O *D sky130_fd_sc_hd__clkbuf_2
*CAP
1 *151:A 0.000522866
2 *150:A 0.00011925
3 *148:A 4.29835e-05
4 *149:A 0.000458294
5 *160:X 0.000565374
6 *38:36 0.00112487
7 *38:12 0.00119451
8 *38:10 0.00174136
9 *148:A *131:B 2.14757e-05
10 *149:A *131:B 5.33882e-05
11 *149:A *43:34 9.11048e-06
12 *149:A *43:36 0.000218303
13 *149:A *43:42 0.000147725
14 *149:A *45:39 0
15 *150:A *45:100 9.80173e-05
16 *151:A *169:A 0.00010339
17 *151:A *170:A 2.16719e-05
18 *151:A *171:A 5.52302e-05
19 *151:A *42:12 9.25014e-06
20 *151:A *42:14 0.000246057
21 *38:12 *43:28 7.2412e-05
22 *38:12 *43:34 0.00036294
23 *38:36 *169:A 2.32517e-05
24 *38:36 *42:94 0.000295549
25 *145:A *151:A 0.00020112
26 *146:B1_N *150:A 0
27 *147:A1 *150:A 0.000148903
28 *147:A2 *38:10 0
29 *153:D *148:A 5.68713e-05
30 *154:RESET_B *38:12 0
31 *155:D *150:A 3.14163e-05
32 *155:RESET_B *151:A 5.52302e-05
33 *155:RESET_B *38:10 0
34 *155:RESET_B *38:12 0
35 *157:A *150:A 4.19624e-06
36 *30:10 *149:A 0
37 *30:10 *38:12 0
38 *35:8 *151:A 3.80953e-06
*RES
1 *160:X *38:10 22.4964 
2 *38:10 *38:12 13.7857 
3 *38:12 *149:A 22.8714 
4 *38:12 *148:A 14.7464 
5 *38:10 *38:36 10.7857 
6 *38:36 *150:A 21.1929 
7 *38:36 *151:A 27.05 
*END

*D_NET *39 0.00478125
*CONN
*I *161:A I *D sky130_fd_sc_hd__buf_1
*I *146:A2 I *D sky130_fd_sc_hd__o21ba_1
*I *145:X O *D sky130_fd_sc_hd__buf_1
*CAP
1 *161:A 0.000146321
2 *146:A2 0.000347133
3 *145:X 0.000332966
4 *39:8 0.00082642
5 *146:A2 *146:A1 5.7661e-06
6 *146:A2 *162:A 5.51819e-05
7 *146:A2 *43:14 0.000342302
8 *146:A2 *43:16 9.41642e-05
9 *146:A2 *43:18 0.000140933
10 *146:A2 *43:22 0.00019949
11 *161:A *163:A 0.000368111
12 *161:A *170:A 0.000153054
13 *39:8 *163:A 3.34295e-05
14 *39:8 *43:14 0.00015134
15 an *39:8 2.8583e-05
16 seg[6] *39:8 3.98018e-05
17 *145:A *161:A 0.000109415
18 *145:A *39:8 0.000312372
19 *146:B1_N *146:A2 0.000183015
20 *27:10 *146:A2 0.000260574
21 *31:10 *146:A2 0.000650878
*RES
1 *145:X *39:8 23.0321 
2 *39:8 *146:A2 25.4429 
3 *39:8 *161:A 19.0143 
*END

*D_NET *40 0.0026651
*CONN
*I *162:A I *D sky130_fd_sc_hd__buf_1
*I *146:X O *D sky130_fd_sc_hd__o21ba_1
*CAP
1 *162:A 0.000705371
2 *146:X 0.000705371
3 *162:A *143:A2 1.98839e-05
4 *162:A *170:A 0.000262504
5 *162:A *44:35 9.41642e-05
6 *135:A *162:A 0.000148196
7 *146:A2 *162:A 5.51819e-05
8 *152:RESET_B *162:A 0.000146474
9 *27:10 *162:A 9.60939e-05
10 *31:10 *162:A 0.000431857
*RES
1 *146:X *162:A 39.2429 
*END

*D_NET *41 0.00272806
*CONN
*I *163:A I *D sky130_fd_sc_hd__buf_1
*I *147:X O *D sky130_fd_sc_hd__o21ba_1
*CAP
1 *163:A 0.000877253
2 *147:X 0.000877253
3 *163:A *170:A 0.000435279
4 seg[2] *163:A 6.043e-05
5 seg[3] *163:A 1.21955e-05
6 seg[4] *163:A 5.19098e-05
7 seg[5] *163:A 1.21955e-05
8 *161:A *163:A 0.000368111
9 *39:8 *163:A 3.34295e-05
*RES
1 *147:X *163:A 45.5107 
*END

*D_NET *42 0.0146251
*CONN
*I *129:A I *D sky130_fd_sc_hd__nor2_1
*I *141:A1 I *D sky130_fd_sc_hd__a21bo_1
*I *130:B I *D sky130_fd_sc_hd__xor2_1
*I *131:B I *D sky130_fd_sc_hd__or4b_1
*I *144:A I *D sky130_fd_sc_hd__or3_1
*I *143:A2 I *D sky130_fd_sc_hd__o21ai_1
*I *132:B I *D sky130_fd_sc_hd__nand3_1
*I *164:A I *D sky130_fd_sc_hd__buf_1
*I *133:A2 I *D sky130_fd_sc_hd__a21o_1
*I *137:D_N I *D sky130_fd_sc_hd__or4b_1
*I *152:Q O *D sky130_fd_sc_hd__dfrtp_4
*CAP
1 *129:A 0
2 *141:A1 0
3 *130:B 0
4 *131:B 0.000248339
5 *144:A 1.69531e-05
6 *143:A2 0.000240624
7 *132:B 0.000216317
8 *164:A 0.000156124
9 *133:A2 2.06112e-05
10 *137:D_N 7.44202e-05
11 *152:Q 0.00013971
12 *42:102 0.000630132
13 *42:94 0.000761582
14 *42:88 0.0009661
15 *42:24 0.000230681
16 *42:18 0.000465906
17 *42:16 0.00047338
18 *42:14 0.00053375
19 *42:12 0.000292127
20 *42:10 0.000791001
21 *131:B *130:A 5.20669e-05
22 *132:B *132:C 0.000137983
23 *132:B *138:B1 0
24 *132:B *43:14 3.5298e-05
25 *132:B *43:16 5.52302e-05
26 *133:A2 *137:B 3.99614e-06
27 *137:D_N *137:B 5.04589e-05
28 *137:D_N *165:A 4.18895e-05
29 *137:D_N *43:53 0.000226507
30 *137:D_N *44:86 5.33005e-05
31 *143:A2 *44:35 0.000246176
32 *144:A *171:A 5.33005e-05
33 *42:10 *168:A 2.94103e-05
34 *42:10 *169:A 4.90803e-05
35 *42:12 *168:A 5.10822e-05
36 *42:12 *169:A 0.000137224
37 *42:12 *170:A 1.09026e-05
38 *42:14 *169:A 0.000146474
39 *42:14 *44:37 2.24646e-05
40 *42:14 *44:125 7.6644e-05
41 *42:16 *44:37 0.00019384
42 *42:16 *44:39 2.24646e-05
43 *42:18 *44:39 0.00069595
44 *42:24 *165:A 0.000178847
45 *42:24 *166:A 9.91086e-05
46 *42:24 *44:39 8.32242e-05
47 *42:94 *169:A 0.000125443
48 *134:B *42:18 3.17148e-05
49 *134:B *42:24 0.000173797
50 *136:B *164:A 5.33005e-05
51 *139:A *42:102 0.00116534
52 *143:B1 *143:A2 5.33005e-05
53 *145:A *42:14 0.000188703
54 *145:A *42:16 6.07328e-05
55 *146:B1_N *42:94 5.53499e-05
56 *147:A1 *42:88 4.94362e-05
57 *147:A1 *42:94 6.63569e-05
58 *147:A2 *42:94 0.000558857
59 *148:A *131:B 2.14757e-05
60 *149:A *131:B 5.33882e-05
61 *151:A *42:12 9.25014e-06
62 *151:A *42:14 0.000246057
63 *152:D *42:88 4.15914e-05
64 *152:RESET_B *42:14 0.000187499
65 *152:RESET_B *42:88 1.66258e-05
66 *153:D *131:B 5.52238e-05
67 *155:RESET_B *144:A 5.33005e-05
68 *157:A *42:94 3.34366e-05
69 *162:A *143:A2 1.98839e-05
70 *27:10 *42:16 0.000101545
71 *27:10 *42:18 0.000672771
72 *30:10 *42:88 0
73 *32:14 *42:94 5.33005e-05
74 *32:14 *42:102 0.00117119
75 *38:36 *42:94 0.000295549
*RES
1 *152:Q *42:10 16.3 
2 *42:10 *42:12 1.94643 
3 *42:12 *42:14 7.71429 
4 *42:14 *42:16 2.85714 
5 *42:16 *42:18 8.92857 
6 *42:18 *42:24 8.51786 
7 *42:24 *137:D_N 11.8893 
8 *42:24 *133:A2 9.72857 
9 *42:18 *164:A 16.4071 
10 *42:16 *132:B 16.9429 
11 *42:14 *143:A2 17.6214 
12 *42:12 *144:A 14.3357 
13 *42:10 *42:88 16.4107 
14 *42:88 *42:94 15.3929 
15 *42:94 *42:102 25.0536 
16 *42:102 *131:B 22.6571 
17 *42:102 *130:B 9.3 
18 *42:94 *141:A1 9.3 
19 *42:88 *129:A 13.8 
*END

*D_NET *43 0.0101803
*CONN
*I *128:A I *D sky130_fd_sc_hd__nor3b_1
*I *132:A I *D sky130_fd_sc_hd__nand3_1
*I *138:A1 I *D sky130_fd_sc_hd__a21oi_1
*I *146:A1 I *D sky130_fd_sc_hd__o21ba_1
*I *142:A I *D sky130_fd_sc_hd__inv_2
*I *130:A I *D sky130_fd_sc_hd__xor2_1
*I *131:A I *D sky130_fd_sc_hd__or4b_1
*I *165:A I *D sky130_fd_sc_hd__buf_1
*I *133:A1 I *D sky130_fd_sc_hd__a21o_1
*I *137:A I *D sky130_fd_sc_hd__or4b_1
*I *153:Q O *D sky130_fd_sc_hd__dfrtp_4
*CAP
1 *128:A 0.000312649
2 *132:A 0
3 *138:A1 0
4 *146:A1 2.03441e-05
5 *142:A 0
6 *130:A 4.51598e-05
7 *131:A 0
8 *165:A 0.000389337
9 *133:A1 0
10 *137:A 2.23854e-05
11 *153:Q 0.000300546
12 *43:53 0.000735307
13 *43:42 0.000679466
14 *43:36 0.000437954
15 *43:34 0.000392719
16 *43:28 0.000391659
17 *43:22 0.000514542
18 *43:18 0.000359354
19 *43:16 6.72295e-05
20 *43:14 0.000644325
21 *128:A *44:125 0.000354436
22 *137:A *137:C 0
23 *43:14 *132:C 0.000137983
24 *43:18 *138:B1 7.25712e-05
25 *43:22 *138:B1 0.000107543
26 *43:42 *137:C 0.000121126
27 *43:42 *140:A 0.000101363
28 *43:42 *140:B 0.00027068
29 *43:53 *137:B 1.00073e-05
30 *43:53 *137:C 1.74352e-05
31 *131:B *130:A 5.20669e-05
32 *132:B *43:14 3.5298e-05
33 *132:B *43:16 5.52302e-05
34 *135:A *128:A 0.00021559
35 *137:D_N *165:A 4.18895e-05
36 *137:D_N *43:53 0.000226507
37 *145:A *43:14 0.000153047
38 *146:A2 *146:A1 5.7661e-06
39 *146:A2 *43:14 0.000342302
40 *146:A2 *43:16 9.41642e-05
41 *146:A2 *43:18 0.000140933
42 *146:A2 *43:22 0.00019949
43 *146:B1_N *43:22 0.000184945
44 *149:A *43:34 9.11048e-06
45 *149:A *43:36 0.000218303
46 *149:A *43:42 0.000147725
47 *152:RESET_B *128:A 1.27784e-05
48 *155:D *128:A 0.000453104
49 *158:A *128:A 0.000118557
50 *159:A *128:A 0.000121573
51 *31:10 *43:22 3.28516e-05
52 *31:10 *43:28 4.73684e-05
53 *32:14 *43:36 0
54 *32:14 *43:42 0
55 *38:12 *43:28 7.2412e-05
56 *38:12 *43:34 0.00036294
57 *39:8 *43:14 0.00015134
58 *42:24 *165:A 0.000178847
*RES
1 *153:Q *43:14 25.425 
2 *43:14 *43:16 0.946429 
3 *43:16 *43:18 1.35714 
4 *43:18 *43:22 6.71429 
5 *43:22 *43:28 7.80357 
6 *43:28 *43:34 5.64286 
7 *43:34 *43:36 2.85714 
8 *43:36 *43:42 11.5 
9 *43:42 *137:A 9.72857 
10 *43:42 *43:53 4.66071 
11 *43:53 *133:A1 9.3 
12 *43:53 *165:A 14.2643 
13 *43:36 *131:A 13.8 
14 *43:34 *130:A 14.7464 
15 *43:28 *142:A 13.8 
16 *43:22 *146:A1 9.72857 
17 *43:18 *138:A1 9.3 
18 *43:16 *132:A 9.3 
19 *43:14 *128:A 28.8 
*END

*D_NET *44 0.0126382
*CONN
*I *144:B I *D sky130_fd_sc_hd__or3_1
*I *128:C_N I *D sky130_fd_sc_hd__nor3b_1
*I *132:C I *D sky130_fd_sc_hd__nand3_1
*I *133:B1 I *D sky130_fd_sc_hd__a21o_1
*I *137:B I *D sky130_fd_sc_hd__or4b_1
*I *131:D_N I *D sky130_fd_sc_hd__or4b_1
*I *140:A I *D sky130_fd_sc_hd__or2_1
*I *166:A I *D sky130_fd_sc_hd__buf_1
*I *138:A2 I *D sky130_fd_sc_hd__a21oi_1
*I *154:Q O *D sky130_fd_sc_hd__dfrtp_4
*CAP
1 *144:B 8.08594e-05
2 *128:C_N 1.1624e-05
3 *132:C 3.47587e-05
4 *133:B1 0
5 *137:B 0.000156706
6 *131:D_N 2.30322e-05
7 *140:A 0.00027291
8 *166:A 0.000266689
9 *138:A2 8.2053e-05
10 *154:Q 0.000784102
11 *44:125 0.000414674
12 *44:86 0.000241467
13 *44:58 0.000793186
14 *44:56 0.00075603
15 *44:39 0.000672214
16 *44:37 0.000343914
17 *44:35 0.000590062
18 *44:12 0.00105637
19 *128:C_N *144:C 5.52238e-05
20 *128:C_N *171:A 5.52238e-05
21 *138:A2 *45:16 0.000240484
22 *140:A *131:C 5.06683e-05
23 *144:B *168:A 5.52302e-05
24 *166:A *167:A 0.000308752
25 *44:35 *170:A 0.0001069
26 *44:39 *167:A 2.49484e-05
27 *44:56 *45:59 7.02611e-05
28 *44:58 *131:C 3.24142e-05
29 *44:58 *45:26 0.000108113
30 *44:58 *45:59 0.000166407
31 *44:125 *170:A 9.60875e-05
32 *128:A *44:125 0.000354436
33 *132:B *132:C 0.000137983
34 *133:A2 *137:B 3.99614e-06
35 *134:A *140:A 2.65242e-05
36 *134:B *166:A 0.000142272
37 *135:A *44:39 7.48474e-05
38 *135:A *44:86 5.86416e-05
39 *136:B *44:56 1.40306e-05
40 *137:D_N *137:B 5.04589e-05
41 *137:D_N *44:86 5.33005e-05
42 *143:A2 *44:35 0.000246176
43 *143:B1 *44:35 5.33005e-05
44 *147:A1 *138:A2 2.31791e-05
45 *152:RESET_B *144:B 3.69697e-05
46 *152:RESET_B *44:37 0.000207054
47 *152:RESET_B *44:39 0.000537502
48 *152:RESET_B *44:125 0.000410759
49 *153:RESET_B *44:86 0.000121573
50 *154:CLK *44:12 6.07152e-05
51 *154:CLK *44:35 0
52 *154:D *44:12 0.000137983
53 *154:D *44:35 0.000155321
54 *159:A *144:B 2.28428e-05
55 *162:A *44:35 9.41642e-05
56 *32:14 *140:A 0
57 *33:10 *138:A2 0.000219734
58 *42:14 *44:37 2.24646e-05
59 *42:14 *44:125 7.6644e-05
60 *42:16 *44:37 0.00019384
61 *42:16 *44:39 2.24646e-05
62 *42:18 *44:39 0.00069595
63 *42:24 *166:A 9.91086e-05
64 *42:24 *44:39 8.32242e-05
65 *43:14 *132:C 0.000137983
66 *43:42 *140:A 0.000101363
67 *43:53 *137:B 1.00073e-05
*RES
1 *154:Q *44:12 19.4429 
2 *44:12 *138:A2 21.4607 
3 *44:12 *44:35 9.83929 
4 *44:35 *44:37 2.85714 
5 *44:37 *44:39 10.1429 
6 *44:39 *166:A 20.8893 
7 *44:39 *44:56 6.67857 
8 *44:56 *44:58 6.69643 
9 *44:58 *140:A 22.2286 
10 *44:58 *131:D_N 9.72857 
11 *44:56 *44:86 11.1786 
12 *44:86 *137:B 12.2286 
13 *44:86 *133:B1 9.3 
14 *44:37 *132:C 15.1571 
15 *44:35 *44:125 18.1429 
16 *44:125 *128:C_N 14.3357 
17 *44:125 *144:B 15.3714 
*END

*D_NET *45 0.010787
*CONN
*I *128:B I *D sky130_fd_sc_hd__nor3b_1
*I *144:C I *D sky130_fd_sc_hd__or3_1
*I *138:B1 I *D sky130_fd_sc_hd__a21oi_1
*I *136:A I *D sky130_fd_sc_hd__xnor2_1
*I *167:A I *D sky130_fd_sc_hd__buf_1
*I *137:C I *D sky130_fd_sc_hd__or4b_1
*I *140:B I *D sky130_fd_sc_hd__or2_1