*SPEF "ieee 1481-1999"
*DESIGN "twos_complement"
*DATE "20:28:27 Friday April 25, 2025"
*VENDOR "The OpenROAD Project"
*PROGRAM "OpenROAD"
*VERSION "b16bda7e82721d10566ff7e2b68f1ff0be9f9e38"
*DESIGN_FLOW "NAME_SCOPE LOCAL" "PIN_CAP NONE"
*DIVIDER /
*DELIMITER :
*BUS_DELIMITER []
*T_UNIT 1 NS
*C_UNIT 1 PF
*R_UNIT 1 OHM
*L_UNIT 1 HENRY

*NAME_MAP
*3 in[0]
*4 in[1]
*5 in[2]
*6 in[3]
*7 in[4]
*8 in[5]
*9 in[6]
*10 in[7]
*11 out[0]
*12 out[1]
*13 out[2]
*14 out[3]
*15 out[4]
*16 out[5]
*17 out[6]
*18 out[7]
*19 _00_
*20 _01_
*21 _02_
*22 _03_
*23 _04_
*24 _05_
*25 _06_
*26 _07_
*27 _08_
*28 net1
*29 net10
*30 net11
*31 net12
*32 net13
*33 net14
*34 net15
*35 net16
*36 net2
*37 net3
*38 net4
*39 net5
*40 net6
*41 net7
*42 net8
*43 net9
*44 FILLER_0_0_21
*45 FILLER_0_0_27
*46 FILLER_0_0_36
*47 FILLER_0_0_9
*48 FILLER_0_10_11
*49 FILLER_0_10_23
*50 FILLER_0_10_27
*51 FILLER_0_10_36
*52 FILLER_0_11_18
*53 FILLER_0_11_30
*54 FILLER_0_11_42
*55 FILLER_0_11_6
*56 FILLER_0_12_16
*57 FILLER_0_12_29
*58 FILLER_0_12_37
*59 FILLER_0_1_15
*60 FILLER_0_1_27
*61 FILLER_0_1_3
*62 FILLER_0_1_39
*63 FILLER_0_1_47
*64 FILLER_0_2_11
*65 FILLER_0_2_23
*66 FILLER_0_2_27
*67 FILLER_0_2_29
*68 FILLER_0_2_3
*69 FILLER_0_2_41
*70 FILLER_0_2_47
*71 FILLER_0_2_7
*72 FILLER_0_3_14
*73 FILLER_0_3_23
*74 FILLER_0_3_27
*75 FILLER_0_3_33
*76 FILLER_0_3_41
*77 FILLER_0_3_6
*78 FILLER_0_4_17
*79 FILLER_0_4_25
*80 FILLER_0_4_3
*81 FILLER_0_4_39
*82 FILLER_0_4_47
*83 FILLER_0_4_7
*84 FILLER_0_5_18
*85 FILLER_0_5_30
*86 FILLER_0_5_42
*87 FILLER_0_5_6
*88 FILLER_0_6_15
*89 FILLER_0_6_27
*90 FILLER_0_6_29
*91 FILLER_0_6_3
*92 FILLER_0_6_41
*93 FILLER_0_6_47
*94 FILLER_0_7_15
*95 FILLER_0_7_23
*96 FILLER_0_7_27
*97 FILLER_0_7_3
*98 FILLER_0_7_40
*99 FILLER_0_8_14
*100 FILLER_0_8_20
*101 FILLER_0_8_29
*102 FILLER_0_8_37
*103 FILLER_0_8_46
*104 FILLER_0_8_6
*105 FILLER_0_9_15
*106 FILLER_0_9_27
*107 FILLER_0_9_3
*108 FILLER_0_9_39
*109 FILLER_0_9_47
*110 PHY_EDGE_ROW_0_Left_13
*111 PHY_EDGE_ROW_0_Right_0
*112 PHY_EDGE_ROW_10_Left_23
*113 PHY_EDGE_ROW_10_Right_10
*114 PHY_EDGE_ROW_11_Left_24
*115 PHY_EDGE_ROW_11_Right_11
*116 PHY_EDGE_ROW_12_Left_25
*117 PHY_EDGE_ROW_12_Right_12
*118 PHY_EDGE_ROW_1_Left_14
*119 PHY_EDGE_ROW_1_Right_1
*120 PHY_EDGE_ROW_2_Left_15
*121 PHY_EDGE_ROW_2_Right_2
*122 PHY_EDGE_ROW_3_Left_16
*123 PHY_EDGE_ROW_3_Right_3
*124 PHY_EDGE_ROW_4_Left_17
*125 PHY_EDGE_ROW_4_Right_4
*126 PHY_EDGE_ROW_5_Left_18
*127 PHY_EDGE_ROW_5_Right_5
*128 PHY_EDGE_ROW_6_Left_19
*129 PHY_EDGE_ROW_6_Right_6
*130 PHY_EDGE_ROW_7_Left_20
*131 PHY_EDGE_ROW_7_Right_7
*132 PHY_EDGE_ROW_8_Left_21
*133 PHY_EDGE_ROW_8_Right_8
*134 PHY_EDGE_ROW_9_Left_22
*135 PHY_EDGE_ROW_9_Right_9
*136 TAP_TAPCELL_ROW_0_26
*137 TAP_TAPCELL_ROW_10_31
*138 TAP_TAPCELL_ROW_12_32
*139 TAP_TAPCELL_ROW_2_27
*140 TAP_TAPCELL_ROW_4_28
*141 TAP_TAPCELL_ROW_6_29
*142 TAP_TAPCELL_ROW_8_30
*143 _09_
*144 _10_
*145 _11_
*146 _12_
*147 _13_
*148 _14_
*149 _15_
*150 _16_
*151 _17_
*152 _18_
*153 _19_
*154 _20_
*155 _21_
*156 _22_
*157 _23_
*158 _24_
*159 _25_
*160 input1
*161 input2
*162 input3
*163 input4
*164 input5
*165 input6
*166 input7
*167 input8
*168 output10
*169 output11
*170 output12
*171 output13
*172 output14
*173 output15
*174 output16
*175 output9

*PORTS
in[0] I
in[1] I
in[2] I
in[3] I
in[4] I
in[5] I
in[6] I
in[7] I
out[0] O
out[1] O
out[2] O
out[3] O
out[4] O
out[5] O
out[6] O
out[7] O

*D_NET *3 0.000986291
*CONN
*P in[0] I
*I *160:A I *D sky130_fd_sc_hd__dlymetal6s2s_1
*CAP
1 in[0] 0.000493145
2 *160:A 0.000493145
3 *160:A *161:A 0
*RES
1 in[0] *160:A 9.94677 
*END

*D_NET *4 0.000706151
*CONN
*P in[1] I
*I *161:A I *D sky130_fd_sc_hd__buf_1
*CAP
1 in[1] 0.000353076
2 *161:A 0.000353076
3 *161:A *162:A 0
4 *161:A *28:12 0
5 *160:A *161:A 0
*RES
1 in[1] *161:A 8.3643 
*END

*D_NET *5 0.00085127
*CONN
*P in[2] I
*I *162:A I *D sky130_fd_sc_hd__buf_1
*CAP
1 in[2] 0.00040233
2 *162:A 0.00040233
3 *162:A *145:A 0
4 *162:A *146:B 4.66108e-05
5 *162:A *163:A 0
6 *161:A *162:A 0
*RES
1 in[2] *162:A 8.4387 
*END

*D_NET *6 0.000653585
*CONN
*P in[3] I
*I *163:A I *D sky130_fd_sc_hd__clkbuf_1
*CAP
1 in[3] 0.000326792
2 *163:A 0.000326792
3 *163:A *145:A 0
4 *163:A *164:A 0
5 *162:A *163:A 0
*RES
1 in[3] *163:A 7.8543 
*END

*D_NET *7 0.000563175
*CONN
*P in[4] I
*I *164:A I *D sky130_fd_sc_hd__buf_1
*CAP
1 in[4] 0.000278083
2 *164:A 0.000278083
3 *164:A *145:A 7.00889e-06
4 *164:A *165:A 0
5 *164:A *28:12 0
6 *163:A *164:A 0
*RES
1 in[4] *164:A 7.0893 
*END

*D_NET *8 0.000666425
*CONN
*P in[5] I
*I *165:A I *D sky130_fd_sc_hd__buf_1
*CAP
1 in[5] 0.000333212
2 *165:A 0.000333212
3 *165:A *166:A 0
4 *165:A *173:A 0
5 *164:A *165:A 0
*RES
1 in[5] *165:A 8.1093 
*END

*D_NET *9 0.000523624
*CONN
*P in[6] I
*I *166:A I *D sky130_fd_sc_hd__clkbuf_1
*CAP
1 in[6] 0.000261812
2 *166:A 0.000261812
3 *166:A *167:A 0
4 *165:A *166:A 0
*RES
1 in[6] *166:A 6.8343 
*END

*D_NET *10 0.00117271
*CONN
*P in[7] I
*I *167:A I *D sky130_fd_sc_hd__clkbuf_1
*CAP
1 in[7] 0.000570064
2 *167:A 0.000570064
3 *167:A *173:A 3.25831e-05
4 *166:A *167:A 0
*RES
1 in[7] *167:A 10.6316 
*END

*D_NET *11 0.00109227
*CONN
*P out[0] O
*I *175:X O *D sky130_fd_sc_hd__buf_2
*CAP
1 out[0] 0.000546133
2 *175:X 0.000546133
3 out[0] out[1] 0
*RES
1 *175:X out[0] 9.66983 
*END

*D_NET *12 0.000411239
*CONN
*P out[1] O
*I *168:X O *D sky130_fd_sc_hd__buf_2
*CAP
1 out[1] 0.00020562
2 *168:X 0.00020562
3 out[1] out[2] 0
4 out[0] out[1] 0
*RES
1 *168:X out[1] 4.84677 
*END

*D_NET *13 0.000415805
*CONN
*P out[2] O
*I *169:X O *D sky130_fd_sc_hd__buf_2
*CAP
1 out[2] 0.000202988
2 *169:X 0.000202988
3 out[2] out[3] 0
4 out[2] *172:A 9.82856e-06
5 out[1] out[2] 0
*RES
1 *169:X out[2] 4.84677 
*END

*D_NET *14 0.000445575
*CONN
*P out[3] O
*I *170:X O *D sky130_fd_sc_hd__buf_2
*CAP
1 out[3] 0.000210214
2 *170:X 0.000210214
3 out[3] out[4] 0
4 out[3] *172:A 2.51475e-05
5 out[2] out[3] 0
*RES
1 *170:X out[3] 5.10177 
*END

*D_NET *15 0.000413408
*CONN
*P out[4] O
*I *171:X O *D sky130_fd_sc_hd__buf_2
*CAP
1 out[4] 0.000200848
2 *171:X 0.000200848
3 out[4] out[5] 0
4 out[4] *172:A 1.17114e-05
5 out[3] out[4] 0
*RES
1 *171:X out[4] 4.84677 
*END

*D_NET *16 0.00054695
*CONN
*P out[5] O
*I *172:X O *D sky130_fd_sc_hd__buf_2
*CAP
1 out[5] 0.000251457
2 *172:X 0.000251457
3 out[5] out[6] 0
4 out[5] *174:A 4.40358e-05
5 out[4] out[5] 0
*RES
1 *172:X out[5] 5.86677 
*END

*D_NET *17 0.000710986
*CONN
*P out[6] O
*I *173:X O *D sky130_fd_sc_hd__buf_2
*CAP
1 out[6] 0.000355493
2 *173:X 0.000355493
3 out[6] out[7] 0
4 out[5] out[6] 0
*RES
1 *173:X out[6] 5.19637 
*END

*D_NET *18 0.000971234
*CONN
*P out[7] O
*I *174:X O *D sky130_fd_sc_hd__clkbuf_4
*CAP
1 out[7] 0.000485617
2 *174:X 0.000485617
3 out[6] out[7] 0
*RES
1 *174:X out[7] 10.1435 
*END

*D_NET *19 0.00877437
*CONN
*I *149:D I *D sky130_fd_sc_hd__or4_1
*I *145:B I *D sky130_fd_sc_hd__and2_1
*I *158:B1_N I *D sky130_fd_sc_hd__a21boi_1
*I *144:B I *D sky130_fd_sc_hd__nor2_1
*I *148:A3 I *D sky130_fd_sc_hd__o31a_1
*I *143:X O *D sky130_fd_sc_hd__or4_2
*CAP
1 *149:D 3.76639e-05
2 *145:B 0.000236039
3 *158:B1_N 9.95052e-05
4 *144:B 0
5 *148:A3 0.000505218
6 *143:X 0.000241183
7 *19:48 0.00140234
8 *19:14 0.000547209
9 *19:12 0.00122882
10 *19:10 0.000398878
11 *145:B *173:A 0.000533494
12 *145:B *28:12 0.000941055
13 *148:A3 *148:A1 1.7678e-05
14 *148:A3 *149:C 0.000250152
15 *148:A3 *150:A_N 8.53113e-06
16 *148:A3 *154:A 0.000183043
17 *148:A3 *172:A 0
18 *148:A3 *173:A 3.99879e-05
19 *148:A3 *174:A 0
20 *148:A3 *175:A 3.09233e-05
21 *148:A3 *41:8 1.08758e-05
22 *158:B1_N *173:A 7.44375e-05
23 *158:B1_N *175:A 0.000195946
24 *158:B1_N *28:12 0.000140912
25 *158:B1_N *28:21 0.000232581
26 *19:10 *143:A 6.3889e-05
27 *19:10 *143:D 4.66108e-05
28 *19:10 *175:A 0.000116853
29 *19:10 *37:16 0
30 *19:12 *149:A 9.34489e-05
31 *19:12 *154:A 0.00023973
32 *19:12 *175:A 0.000425829
33 *19:14 *154:A 0.000127366
34 *19:14 *175:A 0.00013687
35 *19:48 *145:A 9.60582e-07
36 *19:48 *171:A 5.16211e-05
37 *19:48 *39:19 0.000106212
38 *19:48 *39:34 8.50801e-06
*RES
1 *143:X *19:10 7.155 
2 *19:10 *19:12 4.95 
3 *19:12 *19:14 1.635 
4 *19:14 *148:A3 17.755 
5 *19:14 *144:B 3.6 
6 *19:12 *19:48 15.49 
7 *19:48 *158:B1_N 7.41 
8 *19:48 *145:B 14.415 
9 *19:10 *149:D 4.05 
*END

*D_NET *20 0.00508528
*CONN
*I *147:B I *D sky130_fd_sc_hd__xnor2_1
*I *146:A I *D sky130_fd_sc_hd__nor2_1
*I *144:Y O *D sky130_fd_sc_hd__nor2_1
*CAP
1 *147:B 0.000322944
2 *146:A 0.000475104
3 *144:Y 0.00014556
4 *20:8 0.000943608
5 *146:A *148:A1 0.00031209
6 *146:A *150:A_N 0.000310417
7 *146:A *171:A 0.00033841
8 *147:B *147:A 0.000579602
9 *147:B *148:A1 0.000281855
10 *147:B *150:A_N 0.000570171
11 *147:B *169:A 0.000404402
12 *147:B *175:A 0
13 *147:B *36:10 1.34361e-05
14 *147:B *36:12 8.07785e-05
15 *147:B *36:14 4.5783e-05
16 *147:B *37:16 6.89899e-05
17 *20:8 *175:A 0.000192125
*RES
1 *144:Y *20:8 5.43 
2 *20:8 *146:A 14.97 
3 *20:8 *147:B 16.71 
*END

*D_NET *21 0.00284415
*CONN
*I *146:B I *D sky130_fd_sc_hd__nor2_1
*I *145:X O *D sky130_fd_sc_hd__and2_1
*CAP
1 *146:B 0.000706509
2 *145:X 0.000706509
3 *146:B *173:A 0.00138453
4 *162:A *146:B 4.66108e-05
*RES
1 *145:X *146:B 23.565 
*END

*D_NET *22 0.00305337
*CONN
*I *150:A_N I *D sky130_fd_sc_hd__and2b_1
*I *148:X O *D sky130_fd_sc_hd__o31a_1
*CAP
1 *150:A_N 0.000454852
2 *148:X 0.000454852
3 *150:A_N *148:A1 0.000161403
4 *150:A_N *149:C 0.000285962
5 *150:A_N *171:A 0.00048729
6 *150:A_N *37:16 0.000159262
7 *150:A_N *41:8 0.000160635
8 *146:A *150:A_N 0.000310417
9 *147:B *150:A_N 0.000570171
10 *148:A3 *150:A_N 8.53113e-06
*RES
1 *148:X *150:A_N 22.305 
*END

*D_NET *23 0.00268004
*CONN
*I *150:B I *D sky130_fd_sc_hd__and2b_1
*I *152:B I *D sky130_fd_sc_hd__xor2_1
*I *149:X O *D sky130_fd_sc_hd__or4_1
*CAP
1 *150:B 0
2 *152:B 0.000356216
3 *149:X 0.000101783
4 *23:6 0.000458
5 *152:B *143:D 8.52172e-05
6 *152:B *152:A 4.77719e-05
7 *152:B *154:B 0.00018305
8 *152:B *154:C 0.000122375
9 *152:B *174:A 0.000279787
10 *152:B *25:12 0.000116158
11 *152:B *28:36 0.000184752
12 *152:B *36:12 0.000171172
13 *152:B *36:14 0.000327327
14 *152:B *40:8 4.60061e-05
15 *152:B *40:25 0
16 *23:6 *149:B 0.000118081
17 *23:6 *40:25 8.23457e-05
*RES
1 *149:X *23:6 3.43 
2 *23:6 *152:B 17.165 
3 *23:6 *150:B 1.6 
*END

*D_NET *24 0.00233963
*CONN
*I *151:A I *D sky130_fd_sc_hd__clkbuf_1
*I *150:X O *D sky130_fd_sc_hd__and2b_1
*CAP
1 *151:A 0.000922722
2 *150:X 0.000922722
3 *151:A *157:A 6.41032e-05
4 *151:A *158:A1 0.000157097
5 *151:A *173:A 0
6 *151:A *28:12 0
7 *151:A *40:25 0.000272984
*RES
1 *150:X *151:A 23.04 
*END

*D_NET *25 0.00245456
*CONN
*I *156:A I *D sky130_fd_sc_hd__and2_1
*I *158:A2 I *D sky130_fd_sc_hd__a21boi_1
*I *154:X O *D sky130_fd_sc_hd__or3_1
*CAP
1 *156:A 0.000275929
2 *158:A2 3.9202e-05
3 *154:X 7.4128e-05
4 *25:12 0.000389259
5 *156:A *143:D 0
6 *156:A *156:B 2.42236e-05
7 *156:A *28:36 0
8 *156:A *40:25 0.000487971
9 *158:A2 *175:A 0.00023603
10 *158:A2 *28:21 0.000234349
11 *25:12 *153:B 3.57349e-05
12 *25:12 *154:C 0.000116158
13 *25:12 *175:A 0.00022558
14 *25:12 *28:21 0.000199833
15 *152:B *25:12 0.000116158
*RES
1 *154:X *25:12 9.155 
2 *25:12 *158:A2 3.775 
3 *25:12 *156:A 11.825 
*END

*D_NET *26 0.00156655
*CONN
*I *156:B I *D sky130_fd_sc_hd__and2_1
*I *155:Y O *D sky130_fd_sc_hd__o21ai_1
*CAP
1 *156:B 0.000650422
2 *155:Y 0.000650422
3 *156:B *143:D 0
4 *156:B *155:A2 0.000105808
5 *156:B *158:A1 0
6 *156:B *37:16 6.33103e-05
7 *156:B *40:25 7.23602e-05
8 *156:A *156:B 2.42236e-05
*RES
1 *155:Y *156:B 15.15 
*END

*D_NET *27 0.000574211
*CONN
*I *157:A I *D sky130_fd_sc_hd__clkbuf_1
*I *156:X O *D sky130_fd_sc_hd__and2_1
*CAP
1 *157:A 0.000194933
2 *156:X 0.000194933
3 *157:A *143:A 4.78896e-05
4 *157:A *158:A1 7.23533e-05
5 *151:A *157:A 6.41032e-05
*RES
1 *156:X *157:A 10.515 
*END

*D_NET *28 0.00922121
*CONN
*I *153:B I *D sky130_fd_sc_hd__xor2_1
*I *143:D I *D sky130_fd_sc_hd__or4_2
*I *155:A2 I *D sky130_fd_sc_hd__o21ai_1
*I *154:C I *D sky130_fd_sc_hd__or3_1
*I *159:A I *D sky130_fd_sc_hd__clkbuf_1
*I *160:X O *D sky130_fd_sc_hd__dlymetal6s2s_1
*CAP
1 *153:B 5.68078e-05
2 *143:D 0.000345921
3 *155:A2 0.000172224
4 *154:C 0.00019983
5 *159:A 0
6 *160:X 0.000555816
7 *28:36 0.000700714
8 *28:23 0.000382399
9 *28:21 0.000328643
10 *28:12 0.000827651
11 *143:D *143:A 0.000455121
12 *143:D *169:A 0.000230429
13 *143:D *36:12 6.95248e-05
14 *153:B *153:A 4.66108e-05
15 *153:B *170:A 0.000192125
16 *153:B *175:A 5.16479e-05
17 *154:C *154:A 4.66108e-05
18 *154:C *174:A 3.38341e-05
19 *154:C *40:25 0
20 *155:A2 *155:A1 0.00033764
21 *155:A2 *37:16 0.000119756
22 *28:12 *145:A 0.0008335
23 *28:12 *173:A 0.00013053
24 *28:21 *158:A1 4.82919e-05
25 *28:21 *170:A 0.000534865
26 *28:21 *175:A 7.53307e-05
27 *145:B *28:12 0.000941055
28 *151:A *28:12 0
29 *152:B *143:D 8.52172e-05
30 *152:B *154:C 0.000122375
31 *152:B *28:36 0.000184752
32 *156:A *143:D 0
33 *156:A *28:36 0
34 *156:B *143:D 0
35 *156:B *155:A2 0.000105808
36 *158:A2 *28:21 0.000234349
37 *158:B1_N *28:12 0.000140912
38 *158:B1_N *28:21 0.000232581
39 *161:A *28:12 0
40 *164:A *28:12 0
41 *19:10 *143:D 4.66108e-05
42 *25:12 *153:B 3.57349e-05
43 *25:12 *154:C 0.000116158
44 *25:12 *28:21 0.000199833
*RES
1 *160:X *28:12 22.82 
2 *28:12 *159:A 1.6 
3 *28:12 *28:21 8.4 
4 *28:21 *28:23 2 
5 *28:23 *154:C 7.575 
6 *28:23 *28:36 3.93 
7 *28:36 *155:A2 7.845 
8 *28:36 *143:D 11.775 
9 *28:21 *153:B 3.43 
*END

*D_NET *29 0.00311483
*CONN
*I *168:A I *D sky130_fd_sc_hd__buf_2
*I *153:X O *D sky130_fd_sc_hd__xor2_1
*CAP
1 *168:A 0.000781994
2 *153:X 0.000781994
3 *168:A *170:A 0.000684619
4 *168:A *172:A 0.000389978
5 *168:A *175:A 0.000476247
*RES
1 *153:X *168:A 26.175 
*END

*D_NET *30 0.00275149
*CONN
*I *169:A I *D sky130_fd_sc_hd__buf_2
*I *157:X O *D sky130_fd_sc_hd__clkbuf_1
*CAP
1 *169:A 0.000673429
2 *157:X 0.000673429
3 *169:A *143:A 0.000181857
4 *169:A *172:A 0.000204026
5 *169:A *175:A 0
6 *169:A *37:10 0.000267763
7 *169:A *37:16 0.000116158
8 *143:D *169:A 0.000230429
9 *147:B *169:A 0.000404402
*RES
1 *157:X *169:A 20.73 
*END

*D_NET *31 0.00355653
*CONN
*I *170:A I *D sky130_fd_sc_hd__buf_2
*I *158:Y O *D sky130_fd_sc_hd__a21boi_1
*CAP
1 *170:A 0.000771672
2 *158:Y 0.000771672
3 *170:A *175:A 0.000601575
4 *153:B *170:A 0.000192125
5 *168:A *170:A 0.000684619
6 *28:21 *170:A 0.000534865
*RES
1 *158:Y *170:A 24.075 
*END

*D_NET *32 0.00361996
*CONN
*I *171:A I *D sky130_fd_sc_hd__buf_2
*I *146:Y O *D sky130_fd_sc_hd__nor2_1
*CAP
1 *171:A 0.00110643
2 *146:Y 0.00110643
3 *171:A *149:C 0.000485623
4 *171:A *39:34 4.41506e-05
5 *146:A *171:A 0.00033841
6 *150:A_N *171:A 0.00048729
7 *19:48 *171:A 5.16211e-05
*RES
1 *146:Y *171:A 25.545 
*END

*D_NET *33 0.00243991
*CONN
*I *172:A I *D sky130_fd_sc_hd__buf_2
*I *147:Y O *D sky130_fd_sc_hd__xnor2_1
*CAP
1 *172:A 0.000899609
2 *147:Y 0.000899609
3 *172:A *175:A 0
4 out[2] *172:A 9.82856e-06
5 out[3] *172:A 2.51475e-05
6 out[4] *172:A 1.17114e-05
7 *148:A3 *172:A 0
8 *168:A *172:A 0.000389978
9 *169:A *172:A 0.000204026
*RES
1 *147:Y *172:A 24.03 
*END

*D_NET *34 0.00627585
*CONN
*I *173:A I *D sky130_fd_sc_hd__buf_2
*I *151:X O *D sky130_fd_sc_hd__clkbuf_1
*CAP
1 *173:A 0.0017641
2 *151:X 0.0017641
3 *173:A *148:A2 0.00026033
4 *173:A *149:C 4.99619e-05
5 *173:A *41:8 0.000241806
6 *145:B *173:A 0.000533494
7 *146:B *173:A 0.00138453
8 *148:A3 *173:A 3.99879e-05
9 *151:A *173:A 0
10 *158:B1_N *173:A 7.44375e-05
11 *165:A *173:A 0
12 *167:A *173:A 3.25831e-05
13 *28:12 *173:A 0.00013053
*RES
1 *151:X *173:A 45.555 
*END

*D_NET *35 0.00217612
*CONN
*I *174:A I *D sky130_fd_sc_hd__clkbuf_4
*I *152:X O *D sky130_fd_sc_hd__xor2_1
*CAP
1 *174:A 0.000794466
2 *152:X 0.000794466
3 *174:A *149:C 0
4 *174:A *154:A 0.000229536
5 out[5] *174:A 4.40358e-05
6 *148:A3 *174:A 0
7 *152:B *174:A 0.000279787
8 *154:C *174:A 3.38341e-05
*RES
1 *152:X *174:A 20.52 
*END

*D_NET *36 0.00613288
*CONN
*I *143:C I *D sky130_fd_sc_hd__or4_2
*I *155:A1 I *D sky130_fd_sc_hd__o21ai_1
*I *153:A I *D sky130_fd_sc_hd__xor2_1
*I *154:B I *D sky130_fd_sc_hd__or3_1
*I *161:X O *D sky130_fd_sc_hd__buf_1
*CAP
1 *143:C 0.000134249
2 *155:A1 0.000247601
3 *153:A 1.36534e-05
4 *154:B 7.52035e-05
5 *161:X 0.000912411
6 *36:14 0.000183859
7 *36:12 0.000489686
8 *36:10 0.00119374
9 *143:C *143:A 0.000380189
10 *143:C *143:B 0.000117116
11 *153:A *175:A 4.66108e-05
12 *154:B *148:A1 0.000226848
13 *154:B *40:25 0
14 *36:10 *147:A 0.000342247
15 *36:10 *175:A 0
16 *36:12 *147:A 0.000245886
17 *36:14 *148:A1 0.000248254
18 *143:D *36:12 6.95248e-05
19 *147:B *36:10 1.34361e-05
20 *147:B *36:12 8.07785e-05
21 *147:B *36:14 4.5783e-05
22 *152:B *154:B 0.00018305
23 *152:B *36:12 0.000171172
24 *152:B *36:14 0.000327327
25 *153:B *153:A 4.66108e-05
26 *155:A2 *155:A1 0.00033764
*RES
1 *161:X *36:10 18.045 
2 *36:10 *36:12 4.695 
3 *36:12 *36:14 3.93 
4 *36:14 *154:B 6.255 
5 *36:14 *153:A 4.05 
6 *36:12 *155:A1 7.515 
7 *36:10 *143:C 7.155 
*END

*D_NET *37 0.00545467
*CONN
*I *143:B I *D sky130_fd_sc_hd__or4_2
*I *155:B1 I *D sky130_fd_sc_hd__o21ai_1
*I *154:A I *D sky130_fd_sc_hd__or3_1
*I *162:X O *D sky130_fd_sc_hd__buf_1
*CAP
1 *143:B 0.000137881
2 *155:B1 0
3 *154:A 0.000269127
4 *162:X 0.000915158
5 *37:16 0.000480568
6 *37:10 0.00126448
7 *154:A *144:A 0.00024756
8 *154:A *149:A 0.00013521
9 *154:A *149:C 9.50036e-05
10 *37:10 *175:A 0
11 *37:16 *149:A 1.34361e-05
12 *37:16 *149:C 0.000157602
13 *37:16 *175:A 0
14 *143:C *143:B 0.000117116
15 *147:B *37:16 6.89899e-05
16 *148:A3 *154:A 0.000183043
17 *150:A_N *37:16 0.000159262
18 *154:C *154:A 4.66108e-05
19 *155:A2 *37:16 0.000119756
20 *156:B *37:16 6.33103e-05
21 *169:A *37:10 0.000267763
22 *169:A *37:16 0.000116158
23 *174:A *154:A 0.000229536
24 *19:10 *37:16 0
25 *19:12 *154:A 0.00023973
26 *19:14 *154:A 0.000127366
*RES
1 *162:X *37:10 14.895 
2 *37:10 *37:16 7.835 
3 *37:16 *154:A 14.255 
4 *37:16 *155:B1 1.6 
5 *37:10 *143:B 5.43 
*END

*D_NET *38 0.00390466
*CONN
*I *143:A I *D sky130_fd_sc_hd__or4_2
*I *158:A1 I *D sky130_fd_sc_hd__a21boi_1
*I *163:X O *D sky130_fd_sc_hd__clkbuf_1
*CAP
1 *143:A 0.000460029
2 *158:A1 0.000449012
3 *163:X 0.000314963
4 *38:6 0.001224
5 *158:A1 *175:A 4.99619e-05
6 *158:A1 *40:25 0
7 *143:C *143:A 0.000380189
8 *143:D *143:A 0.000455121
9 *151:A *158:A1 0.000157097
10 *156:B *158:A1 0
11 *157:A *143:A 4.78896e-05
12 *157:A *158:A1 7.23533e-05
13 *169:A *143:A 0.000181857
14 *19:10 *143:A 6.3889e-05
15 *28:21 *158:A1 4.82919e-05
*RES
1 *163:X *38:6 4.81 
2 *38:6 *158:A1 13.805 
3 *38:6 *143:A 12.085 
*END

*D_NET *39 0.00729891
*CONN
*I *149:A I *D sky130_fd_sc_hd__or4_1
*I *144:A I *D sky130_fd_sc_hd__nor2_1
*I *148:A1 I *D sky130_fd_sc_hd__o31a_1
*I *145:A I *D sky130_fd_sc_hd__and2_1
*I *164:X O *D sky130_fd_sc_hd__buf_1
*CAP
1 *149:A 0.000103701
2 *144:A 6.85168e-05
3 *148:A1 0.000388882
4 *145:A 0.000461851
5 *164:X 0
6 *39:34 0.000342679
7 *39:19 0.00138432
8 *39:4 0.00128683
9 *144:A *149:C 0.00024756
10 *148:A1 *148:A2 0
11 *148:A1 *149:C 0
12 *149:A *149:C 0.000276445
13 *146:A *148:A1 0.00031209
14 *147:B *148:A1 0.000281855
15 *148:A3 *148:A1 1.7678e-05
16 *150:A_N *148:A1 0.000161403
17 *154:A *144:A 0.00024756
18 *154:A *149:A 0.00013521
19 *154:B *148:A1 0.000226848
20 *162:A *145:A 0
21 *163:A *145:A 0
22 *164:A *145:A 7.00889e-06
23 *171:A *39:34 4.41506e-05
24 *19:12 *149:A 9.34489e-05
25 *19:48 *145:A 9.60582e-07
26 *19:48 *39:19 0.000106212
27 *19:48 *39:34 8.50801e-06
28 *28:12 *145:A 0.0008335
29 *36:14 *148:A1 0.000248254
30 *37:16 *149:A 1.34361e-05
*RES
1 *164:X *39:4 1.6 
2 *39:4 *145:A 15.935 
3 *39:4 *39:19 9.075 
4 *39:19 *148:A1 16.67 
5 *39:19 *39:34 3.83 
6 *39:34 *144:A 6.51 
7 *39:34 *149:A 7.275 
*END

*D_NET *40 0.00702622
*CONN
*I *149:B I *D sky130_fd_sc_hd__or4_1
*I *147:A I *D sky130_fd_sc_hd__xnor2_1
*I *148:A2 I *D sky130_fd_sc_hd__o31a_1
*I *165:X O *D sky130_fd_sc_hd__buf_1
*CAP
1 *149:B 0.000151305
2 *147:A 0.000147666
3 *148:A2 0.000311574
4 *165:X 0.000520533
5 *40:25 0.000947427
6 *40:8 0.00148056
7 *148:A2 *152:A 0.000425815
8 *148:A2 *41:8 0.00042877
9 *149:B *149:C 2.49909e-05
10 *40:8 *152:A 1.52352e-05
11 *40:25 *152:A 6.45236e-05
12 *147:B *147:A 0.000579602
13 *148:A1 *148:A2 0
14 *151:A *40:25 0.000272984
15 *152:B *40:8 4.60061e-05
16 *152:B *40:25 0
17 *154:B *40:25 0
18 *154:C *40:25 0
19 *156:A *40:25 0.000487971
20 *156:B *40:25 7.23602e-05
21 *158:A1 *40:25 0
22 *173:A *148:A2 0.00026033
23 *23:6 *149:B 0.000118081
24 *23:6 *40:25 8.23457e-05
25 *36:10 *147:A 0.000342247
26 *36:12 *147:A 0.000245886
*RES
1 *165:X *40:8 9.225 
2 *40:8 *148:A2 12.96 
3 *40:8 *40:25 13.82 
4 *40:25 *147:A 12.335 
5 *40:25 *149:B 3.43 
*END

*D_NET *41 0.00495104
*CONN
*I *149:C I *D sky130_fd_sc_hd__or4_1
*I *148:B1 I *D sky130_fd_sc_hd__o31a_1
*I *166:X O *D sky130_fd_sc_hd__clkbuf_1
*CAP
1 *149:C 0.000486285
2 *148:B1 0
3 *166:X 0.000399705
4 *41:8 0.000885991
5 *41:8 *152:A 0.000463671
6 *144:A *149:C 0.00024756
7 *148:A1 *149:C 0
8 *148:A2 *41:8 0.00042877
9 *148:A3 *149:C 0.000250152
10 *148:A3 *41:8 1.08758e-05
11 *149:A *149:C 0.000276445
12 *149:B *149:C 2.49909e-05
13 *150:A_N *149:C 0.000285962
14 *150:A_N *41:8 0.000160635
15 *154:A *149:C 9.50036e-05
16 *171:A *149:C 0.000485623
17 *173:A *149:C 4.99619e-05
18 *173:A *41:8 0.000241806
19 *174:A *149:C 0
20 *37:16 *149:C 0.000157602
*RES
1 *166:X *41:8 12.325 
2 *41:8 *148:B1 1.6 
3 *41:8 *149:C 21.23 
*END

*D_NET *42 0.0021831
*CONN
*I *152:A I *D sky130_fd_sc_hd__xor2_1
*I *167:X O *D sky130_fd_sc_hd__clkbuf_1
*CAP
1 *152:A 0.000583041
2 *167:X 0.000583041
3 *148:A2 *152:A 0.000425815
4 *152:B *152:A 4.77719e-05
5 *40:8 *152:A 1.52352e-05
6 *40:25 *152:A 6.45236e-05
7 *41:8 *152:A 0.000463671
*RES
1 *167:X *152:A 17.955 
*END

*D_NET *43 0.00540791
*CONN
*I *175:A I *D sky130_fd_sc_hd__buf_2
*I *159:X O *D sky130_fd_sc_hd__clkbuf_1
*CAP
1 *175:A 0.00127319
2 *159:X 0.00127319
3 *147:B *175:A 0
4 *148:A3 *175:A 3.09233e-05
5 *153:A *175:A 4.66108e-05
6 *153:B *175:A 5.16479e-05
7 *158:A1 *175:A 4.99619e-05
8 *158:A2 *175:A 0.00023603
9 *158:B1_N *175:A 0.000195946
10 *168:A *175:A 0.000476247
11 *169:A *175:A 0
12 *170:A *175:A 0.000601575
13 *172:A *175:A 0
14 *19:10 *175:A 0.000116853
15 *19:12 *175:A 0.000425829
16 *19:14 *175:A 0.00013687
17 *20:8 *175:A 0.000192125
18 *25:12 *175:A 0.00022558
19 *28:21 *175:A 7.53307e-05
20 *36:10 *175:A 0
21 *37:10 *175:A 0
22 *37:16 *175:A 0
*RES
1 *159:X *175:A 36.18 
*END
