*SPEF "ieee 1481-1999"
*DESIGN "zero2five_counter"
*DATE "10:43:33 Sunday May 25, 2025"
*VENDOR "The OpenROAD Project"
*PROGRAM "OpenROAD"
*VERSION "b16bda7e82721d10566ff7e2b68f1ff0be9f9e38"
*DESIGN_FLOW "NAME_SCOPE LOCAL" "PIN_CAP NONE"
*DIVIDER /
*DELIMITER :
*BUS_DELIMITER []
*T_UNIT 1 NS
*C_UNIT 1 PF
*R_UNIT 1 OHM
*L_UNIT 1 HENRY

*NAME_MAP
*3 net13
*4 clk
*5 count[0]
*6 count[1]
*7 count[2]
*8 count[3]
*9 rst
*10 seg[0]
*11 seg[1]
*12 seg[2]
*13 seg[3]
*14 seg[4]
*15 seg[5]
*16 seg[6]
*17 _00_
*18 _01_
*19 _02_
*20 _03_
*21 _04_
*22 _05_
*23 _06_
*24 _07_
*25 _08_
*26 _09_
*27 _10_
*28 _11_
*29 _12_
*30 _13_
*31 _14_
*32 _15_
*33 _16_
*34 _17_
*35 clknet_0_clk
*36 clknet_1_0__leaf_clk
*37 clknet_1_1__leaf_clk
*38 net1
*39 net10
*40 net11
*41 net12
*42 net2
*43 net3
*44 net4
*45 net5
*46 net6
*47 net7
*48 net8
*49 net9
*50 FILLER_0_0_15
*51 FILLER_0_0_20
*52 FILLER_0_0_3
*53 FILLER_0_0_34
*54 FILLER_0_10_21
*55 FILLER_0_10_29
*56 FILLER_0_10_3
*57 FILLER_0_10_9
*58 FILLER_0_11_19
*59 FILLER_0_11_45
*60 FILLER_0_11_7
*61 FILLER_0_12_3
*62 FILLER_0_12_37
*63 FILLER_0_1_15
*64 FILLER_0_1_3
*65 FILLER_0_1_37
*66 FILLER_0_1_9
*67 FILLER_0_2_19
*68 FILLER_0_2_27
*69 FILLER_0_2_29
*70 FILLER_0_2_3
*71 FILLER_0_2_40
*72 FILLER_0_3_19
*73 FILLER_0_3_27
*74 FILLER_0_3_3
*75 FILLER_0_4_15
*76 FILLER_0_4_27
*77 FILLER_0_4_29
*78 FILLER_0_4_3
*79 FILLER_0_4_41
*80 FILLER_0_5_13
*81 FILLER_0_5_3
*82 FILLER_0_5_9
*83 FILLER_0_6_23
*84 FILLER_0_6_27
*85 FILLER_0_6_3
*86 FILLER_0_6_37
*87 FILLER_0_7_3
*88 FILLER_0_7_37
*89 FILLER_0_8_26
*90 FILLER_0_8_32
*91 FILLER_0_8_44
*92 FILLER_0_9_11
*93 FILLER_0_9_23
*94 FILLER_0_9_46
*95 PHY_EDGE_ROW_0_Left_13
*96 PHY_EDGE_ROW_0_Right_0
*97 PHY_EDGE_ROW_10_Left_23
*98 PHY_EDGE_ROW_10_Right_10
*99 PHY_EDGE_ROW_11_Left_24
*100 PHY_EDGE_ROW_11_Right_11
*101 PHY_EDGE_ROW_12_Left_25
*102 PHY_EDGE_ROW_12_Right_12
*103 PHY_EDGE_ROW_1_Left_14
*104 PHY_EDGE_ROW_1_Right_1
*105 PHY_EDGE_ROW_2_Left_15
*106 PHY_EDGE_ROW_2_Right_2
*107 PHY_EDGE_ROW_3_Left_16
*108 PHY_EDGE_ROW_3_Right_3
*109 PHY_EDGE_ROW_4_Left_17
*110 PHY_EDGE_ROW_4_Right_4
*111 PHY_EDGE_ROW_5_Left_18
*112 PHY_EDGE_ROW_5_Right_5
*113 PHY_EDGE_ROW_6_Left_19
*114 PHY_EDGE_ROW_6_Right_6
*115 PHY_EDGE_ROW_7_Left_20
*116 PHY_EDGE_ROW_7_Right_7
*117 PHY_EDGE_ROW_8_Left_21
*118 PHY_EDGE_ROW_8_Right_8
*119 PHY_EDGE_ROW_9_Left_22
*120 PHY_EDGE_ROW_9_Right_9
*121 TAP_TAPCELL_ROW_0_26
*122 TAP_TAPCELL_ROW_10_31
*123 TAP_TAPCELL_ROW_12_32
*124 TAP_TAPCELL_ROW_2_27
*125 TAP_TAPCELL_ROW_4_28
*126 TAP_TAPCELL_ROW_6_29
*127 TAP_TAPCELL_ROW_8_30
*128 _18_
*129 _19_
*130 _20_
*131 _21_
*132 _22_
*133 _23_
*134 _24_
*135 _25_
*136 _26_
*137 _27_
*138 _28_
*139 _29_
*140 _30_
*141 _31_
*142 _32_
*143 _33_
*144 _34_
*145 _35_
*146 _36_
*147 _37_
*148 _38_
*149 _39_
*150 _40_
*151 _41_
*152 _42_
*153 _43_
*154 _44_
*155 _45_
*156 _47_
*157 clkbuf_0_clk
*158 clkbuf_1_0__f_clk
*159 clkbuf_1_1__f_clk
*160 input1
*161 output10
*162 output11
*163 output12
*164 output2
*165 output3
*166 output4
*167 output5
*168 output6
*169 output7
*170 output8
*171 output9
*172 zero2five_counter_13

*PORTS
an O
clk I
count[0] O
count[1] O
count[2] O
count[3] O
rst I
seg[0] O
seg[1] O
seg[2] O
seg[3] O
seg[4] O
seg[5] O
seg[6] O

*D_NET *3 0.00047346
*CONN
*P an O
*I *172:LO O *D sky130_fd_sc_hd__conb_1
*CAP
1 an 0.000222181
2 *172:LO 0.000222181
3 an count[0] 0
4 an seg[6] 0
5 an *39:8 2.90981e-05
*RES
1 *172:LO an 47.6974 
*END

*D_NET *4 0.00687302
*CONN
*P clk I
*I *157:A I *D sky130_fd_sc_hd__clkbuf_16
*CAP
1 clk 0.00339283
2 *157:A 0
3 *4:23 0.00339283
4 *4:23 *25:18 4.64661e-05
5 *4:23 *33:23 0
6 *4:23 *38:44 3.87221e-06
7 *4:23 *42:94 3.70187e-05
*RES
1 clk *4:23 47.3962 
2 *4:23 *157:A 23 
*END

*D_NET *5 0.000404334
*CONN
*P count[0] O
*I *164:X O *D sky130_fd_sc_hd__buf_1
*CAP
1 count[0] 0.000202167
2 *164:X 0.000202167
3 count[0] count[1] 0
4 count[0] *34:12 0
5 an count[0] 0
*RES
1 *164:X count[0] 46.9931 
*END

*D_NET *6 0.000418151
*CONN
*P count[1] O
*I *165:X O *D sky130_fd_sc_hd__buf_1
*CAP
1 count[1] 0.000209076
2 *165:X 0.000209076
3 count[1] count[2] 0
4 count[1] *134:B 0
5 count[0] count[1] 0
*RES
1 *165:X count[1] 46.9931 
*END

*D_NET *7 0.000566449
*CONN
*P count[2] O
*I *166:X O *D sky130_fd_sc_hd__buf_1
*CAP
1 count[2] 0.000261595
2 *166:X 0.000261595
3 count[2] count[3] 0
4 count[2] *8:8 4.32584e-05
5 count[1] count[2] 0
*RES
1 *166:X count[2] 48.4016 
*END

*D_NET *8 0.00108967
*CONN
*P count[3] O
*I *167:X O *D sky130_fd_sc_hd__buf_1
*CAP
1 count[3] 0.000254171
2 *167:X 0.000269037
3 *8:8 0.000523208
4 count[2] count[3] 0
5 count[2] *8:8 4.32584e-05
*RES
1 *167:X *8:8 43.9554 
2 *8:8 count[3] 8.9296 
*END

*D_NET *9 0.00071938
*CONN
*P rst I
*I *160:A I *D sky130_fd_sc_hd__clkbuf_2
*CAP
1 rst 0.00035969
2 *160:A 0
3 *9:17 0.00035969
*RES
1 rst *9:17 27.6348 
2 *9:17 *160:A 23 
*END

*D_NET *10 0.00107475
*CONN
*P seg[0] O
*I *168:X O *D sky130_fd_sc_hd__buf_1
*CAP
1 seg[0] 0.00026849
2 *168:X 0.000259099
3 *10:8 0.00052759
4 seg[0] seg[1] 0
5 *10:8 seg[1] 1.95685e-05
*RES
1 *168:X *10:8 43.2511 
2 *10:8 seg[0] 8.9296 
*END

*D_NET *11 0.000873058
*CONN
*P seg[1] O
*I *169:X O *D sky130_fd_sc_hd__buf_1
*CAP
1 seg[1] 0.000426745
2 *169:X 0.000426745
3 seg[1] seg[2] 0
4 seg[0] seg[1] 0
5 *10:8 seg[1] 1.95685e-05
*RES
1 *169:X seg[1] 48.2126 
*END

*D_NET *12 0.000602135
*CONN
*P seg[2] O
*I *170:X O *D sky130_fd_sc_hd__buf_1
*CAP
1 seg[2] 0.000269574
2 *170:X 0.000269574
3 seg[2] seg[3] 0
4 seg[2] *41:12 6.29881e-05
5 seg[1] seg[2] 0
*RES
1 *170:X seg[2] 48.4016 
*END

*D_NET *13 0.000430333
*CONN
*P seg[3] O
*I *171:X O *D sky130_fd_sc_hd__buf_1
*CAP
1 seg[3] 0.000208795
2 *171:X 0.000208795
3 seg[3] seg[4] 0
4 seg[3] *41:12 1.27424e-05
5 seg[2] seg[3] 0
*RES
1 *171:X seg[3] 46.9931 
*END

*D_NET *14 0.000543661
*CONN
*P seg[4] O
*I *161:X O *D sky130_fd_sc_hd__buf_1
*CAP
1 seg[4] 0.000244718
2 *161:X 0.000244718
3 seg[4] seg[5] 0
4 seg[4] *41:12 5.42258e-05
5 seg[3] seg[4] 0
*RES
1 *161:X seg[4] 48.0495 
*END

*D_NET *15 0.000418394
*CONN
*P seg[5] O
*I *162:X O *D sky130_fd_sc_hd__buf_1
*CAP
1 seg[5] 0.000202826
2 *162:X 0.000202826
3 seg[5] seg[6] 0
4 seg[5] *41:12 1.27424e-05
5 seg[4] seg[5] 0
*RES
1 *162:X seg[5] 46.9931 
*END

*D_NET *16 0.000595077
*CONN
*P seg[6] O
*I *163:X O *D sky130_fd_sc_hd__buf_1
*CAP
1 seg[6] 0.000277664
2 *163:X 0.000277664
3 seg[6] *39:8 3.97478e-05
4 an seg[6] 0
5 seg[5] seg[6] 0
*RES
1 *163:X seg[6] 48.4016 
*END

*D_NET *17 0.000242912
*CONN
*I *152:D I *D sky130_fd_sc_hd__dfrtp_4
*I *129:Y O *D sky130_fd_sc_hd__nor2_1
*CAP
1 *152:D 0
2 *129:Y 6.33596e-05
3 *17:8 6.33596e-05
4 *17:8 *30:10 7.28526e-05
5 *17:8 *33:23 0
6 *17:8 *42:88 4.334e-05
*RES
1 *129:Y *17:8 39.9057 
2 *17:8 *152:D 38 
*END

*D_NET *18 0.00205414
*CONN
*I *153:D I *D sky130_fd_sc_hd__dfrtp_4
*I *130:X O *D sky130_fd_sc_hd__xor2_1
*CAP
1 *153:D 0.000219091
2 *130:X 0.000219854
3 *18:8 0.000438945
4 *153:D *35:18 0
5 *153:D *45:24 0.000438165
6 *18:8 *148:A 5.73309e-05
7 *18:8 *21:8 0.000486393
8 *18:8 *36:8 0.000139357
9 *18:8 *42:112 5.50049e-05
*RES
1 *130:X *18:8 44.3386 
2 *18:8 *153:D 43.7793 
*END

*D_NET *19 0.00107264
*CONN
*I *154:D I *D sky130_fd_sc_hd__dfrtp_4
*I *135:X O *D sky130_fd_sc_hd__clkbuf_1
*CAP
1 *154:D 0
2 *135:X 0.000317727
3 *19:10 0.000317727
4 *19:10 *25:18 4.68476e-05
5 *19:10 *44:12 0.000137651
6 *19:10 *44:35 0.000155018
7 *19:10 *45:16 4.43614e-05
8 *19:10 *48:8 5.3304e-05
*RES
1 *135:X *19:10 43.1579 
2 *19:10 *154:D 38 
*END

*D_NET *20 0.00415819
*CONN
*I *155:D I *D sky130_fd_sc_hd__dfrtp_4
*I *136:Y O *D sky130_fd_sc_hd__xnor2_1
*CAP
1 *155:D 0
2 *136:Y 0
3 *20:12 0.000941243
4 *20:6 0.000941243
5 *20:12 *153:RESET_B 0.0006255
6 *20:12 *155:CLK 6.59897e-05
7 *20:12 *29:12 0.000388378
8 *20:12 *35:18 0.000607549
9 *20:12 *38:44 3.16784e-05
10 *20:12 *43:117 0.000500354
11 *20:12 *45:12 3.64736e-05
12 *20:12 *45:100 1.97828e-05
*RES
1 *136:Y *20:6 38 
2 *20:6 *20:12 37.8168 
3 *20:12 *155:D 23 
*END

*D_NET *21 0.00572392
*CONN
*I *152:RESET_B I *D sky130_fd_sc_hd__dfrtp_4
*I *148:Y O *D sky130_fd_sc_hd__inv_2
*CAP
1 *152:RESET_B 0.000797762
2 *148:Y 0.000410672
3 *21:8 0.00120843
4 *152:RESET_B *144:B 3.83778e-05
5 *152:RESET_B *159:A 0
6 *152:RESET_B *29:12 0.000341603
7 *152:RESET_B *40:10 0.000161121
8 *152:RESET_B *42:14 0.000195687
9 *152:RESET_B *42:88 1.67826e-05
10 *152:RESET_B *43:117 1.27508e-05
11 *152:RESET_B *44:37 0.000228051
12 *152:RESET_B *44:39 0.000596385
13 *152:RESET_B *44:125 0.000443543
14 *152:RESET_B *47:12 0.000366768
15 *21:8 *35:18 0.000185434
16 *21:8 *36:8 0.000234159
17 *18:8 *21:8 0.000486393
*RES
1 *148:Y *21:8 48.15 
2 *21:8 *152:RESET_B 38.3761 
*END

*D_NET *22 0.00339142
*CONN
*I *153:RESET_B I *D sky130_fd_sc_hd__dfrtp_4
*I *149:Y O *D sky130_fd_sc_hd__inv_2
*CAP
1 *153:RESET_B 0.000573446
2 *149:Y 0.000405321
3 *22:8 0.000978767
4 *153:RESET_B *26:29 0
5 *153:RESET_B *28:8 8.16356e-05
6 *153:RESET_B *29:12 9.65283e-05
7 *153:RESET_B *35:18 0.000441326
8 *153:RESET_B *44:86 0.000133316
9 *153:RESET_B *45:24 0
10 *153:RESET_B *45:67 0
11 *22:8 *134:B 2.98648e-05
12 *22:8 *134:C 1.95448e-05
13 *22:8 *29:8 6.17437e-06
14 *20:12 *153:RESET_B 0.0006255
*RES
1 *149:Y *22:8 45.2914 
2 *22:8 *153:RESET_B 29.935 
*END

*D_NET *23 0.00122841
*CONN
*I *154:RESET_B I *D sky130_fd_sc_hd__dfrtp_4
*I *150:Y O *D sky130_fd_sc_hd__inv_2
*CAP
1 *154:RESET_B 0
2 *150:Y 0.000391509
3 *23:10 0.000391509
4 *23:10 *30:10 5.21024e-05
5 *23:10 *38:12 0
6 *23:10 *45:12 0.000308946
7 *23:10 *45:100 8.43466e-05
*RES
1 *150:Y *23:10 43.9864 
2 *23:10 *154:RESET_B 15 
*END

*D_NET *24 0.00343584
*CONN
*I *155:RESET_B I *D sky130_fd_sc_hd__dfrtp_4
*I *151:Y O *D sky130_fd_sc_hd__inv_2
*CAP
1 *155:RESET_B 0.000341071
2 *151:Y 0.000818001
3 *24:12 0.00115907
4 *155:RESET_B *155:CLK 9.66035e-05
5 *155:RESET_B *32:29 0.000136486
6 *155:RESET_B *38:10 0
7 *155:RESET_B *38:12 0
8 *155:RESET_B *45:12 9.45409e-05
9 *24:12 *144:A 5.3304e-05
10 *24:12 *144:C 0.000191639
11 *24:12 *171:A 0.000125797
12 *24:12 *25:8 0.000268873
13 *24:12 *25:18 2.18506e-05
14 *24:12 *34:8 5.3304e-05
15 *24:12 *38:59 5.50106e-05
16 *24:12 *45:100 2.02872e-05
*RES
1 *151:Y *24:12 49.745 
2 *24:12 *155:RESET_B 22.2189 
*END

*D_NET *25 0.00456599
*CONN
*I *147:B1_N I *D sky130_fd_sc_hd__o21ba_1
*I *129:B I *D sky130_fd_sc_hd__nor2_1
*I *146:B1_N I *D sky130_fd_sc_hd__o21ba_1
*I *128:Y O *D sky130_fd_sc_hd__nor3b_1
*CAP
1 *147:B1_N 0
2 *129:B 0
3 *146:B1_N 0
4 *128:Y 0
5 *25:38 0.00031165
6 *25:18 0.000491628
7 *25:8 0.000590382
8 *25:4 0.000410403
9 *25:8 *171:A 0.000136687
10 *25:18 *154:CLK 0.000160191
11 *25:18 *171:A 5.50106e-05
12 *25:18 *30:10 0.000831348
13 *25:18 *33:23 0
14 *25:18 *38:44 0
15 *25:18 *39:14 0.000184402
16 *25:18 *42:94 5.51222e-05
17 *25:18 *43:22 0.000186108
18 *25:18 *45:16 0
19 *25:38 *147:A2 4.00259e-06
20 *25:38 *159:A 0.000323945
21 *25:38 *33:23 0.000404056
22 *25:38 *45:100 3.70187e-05
23 *4:23 *25:18 4.64661e-05
24 *19:10 *25:18 4.68476e-05
25 *24:12 *25:8 0.000268873
26 *24:12 *25:18 2.18506e-05
*RES
1 *128:Y *25:4 23 
2 *25:4 *25:8 3.50071 
3 *25:8 *25:18 44.0857 
4 *25:18 *146:B1_N 23 
5 *25:8 *129:B 23 
6 *25:4 *25:38 37.8507 
7 *25:38 *147:B1_N 23 
*END

*D_NET *26 0.00681432
*CONN
*I *134:A I *D sky130_fd_sc_hd__and3_1
*I *139:A I *D sky130_fd_sc_hd__nand3_1
*I *131:X O *D sky130_fd_sc_hd__or4b_1
*CAP
1 *134:A 0
2 *139:A 2.79296e-05
3 *131:X 0
4 *26:29 0.000871374
5 *26:10 0.00127814
6 *26:4 0.00212158
7 *139:A *139:B 5.50049e-05
8 *26:10 *139:C 0
9 *26:10 *31:10 0
10 *26:10 *32:14 7.90568e-05
11 *26:10 *42:102 0.00129383
12 *26:10 *49:8 0.000354788
13 *26:29 *131:C 0.000232734
14 *26:29 *28:8 9.88678e-05
15 *26:29 *30:10 0
16 *26:29 *44:66 2.60332e-05
17 *26:29 *45:24 1.58805e-05
18 *26:29 *45:26 0.00031251
19 *26:29 *45:39 0
20 *26:29 *45:59 4.6595e-05
21 *153:RESET_B *26:29 0
*RES
1 *131:X *26:4 23 
2 *26:4 *26:10 43.8343 
3 *26:10 *139:A 38.6214 
4 *26:4 *26:29 46.0536 
5 *26:29 *134:A 23 
*END

*D_NET *27 0.00499629
*CONN
*I *136:B I *D sky130_fd_sc_hd__xnor2_1
*I *134:B I *D sky130_fd_sc_hd__and3_1
*I *132:Y O *D sky130_fd_sc_hd__nand3_1
*CAP
1 *136:B 0.000131882
2 *134:B 0.000574278
3 *132:Y 0.000154028
4 *27:10 0.000953638
5 *27:8 0.000401505
6 *134:B *166:A 0.00014692
7 *134:B *29:8 0.000140259
8 *134:B *34:12 6.16439e-05
9 *134:B *42:18 3.47781e-05
10 *134:B *42:24 0.000192077
11 *134:B *45:67 3.17634e-05
12 *136:B *164:A 5.3304e-05
13 *136:B *44:56 1.39317e-05
14 *27:8 *39:14 0.00026025
15 *27:8 *40:10 9.5877e-05
16 *27:10 *34:12 0.000861723
17 *27:10 *42:16 0.000111852
18 *27:10 *42:18 0.000746711
19 count[1] *134:B 0
20 *22:8 *134:B 2.98648e-05
*RES
1 *132:Y *27:8 41.0036 
2 *27:8 *27:10 11.4136 
3 *27:10 *134:B 48.3364 
4 *27:10 *136:B 40.0714 
*END

*D_NET *28 0.000405099
*CONN
*I *134:C I *D sky130_fd_sc_hd__and3_1
*I *133:X O *D sky130_fd_sc_hd__a21o_1
*CAP
1 *134:C 1.20212e-05
2 *133:X 9.05042e-05
3 *28:8 0.000102525
4 *153:RESET_B *28:8 8.16356e-05
5 *22:8 *134:C 1.95448e-05
6 *26:29 *28:8 9.88678e-05
*RES
1 *133:X *28:8 40.61 
2 *28:8 *134:C 38.2279 
*END

*D_NET *29 0.0033192
*CONN
*I *135:A I *D sky130_fd_sc_hd__clkbuf_1
*I *134:X O *D sky130_fd_sc_hd__and3_1
*CAP
1 *135:A 0
2 *134:X 5.49651e-05
3 *29:12 0.000664322
4 *29:8 0.000719287
5 *29:12 *40:10 0.000163361
6 *29:12 *43:117 0.000237265
7 *29:12 *44:39 7.53293e-05
8 *29:12 *44:86 6.08751e-05
9 *29:12 *45:67 0.00037085
10 *134:B *29:8 0.000140259
11 *152:RESET_B *29:12 0.000341603
12 *153:RESET_B *29:12 9.65283e-05
13 *20:12 *29:12 0.000388378
14 *22:8 *29:8 6.17437e-06
*RES
1 *134:X *29:8 39.5743 
2 *29:8 *29:12 34.5129 
3 *29:12 *135:A 23 
*END

*D_NET *30 0.00583467
*CONN
*I *139:B I *D sky130_fd_sc_hd__nand3_1
*I *137:X O *D sky130_fd_sc_hd__or4b_1
*CAP
1 *139:B 0.000377846
2 *137:X 0
3 *30:10 0.00159832
4 *30:6 0.00122047
5 *139:B *32:29 5.12254e-05
6 *139:B *37:10 0.000402669
7 *30:10 *149:A 0
8 *30:10 *154:CLK 9.69223e-05
9 *30:10 *155:CLK 0.000634263
10 *30:10 *32:29 1.12487e-05
11 *30:10 *33:23 0
12 *30:10 *36:10 0.000235918
13 *30:10 *37:10 0.000141869
14 *30:10 *38:12 0
15 *30:10 *42:88 0
16 *30:10 *45:24 0
17 *30:10 *45:39 5.26101e-05
18 *139:A *139:B 5.50049e-05
19 *17:8 *30:10 7.28526e-05
20 *23:10 *30:10 5.21024e-05
21 *25:18 *30:10 0.000831348
22 *26:29 *30:10 0
*RES
1 *137:X *30:6 38 
2 *30:6 *30:10 44.725 
3 *30:10 *139:B 31.2443 
*END

*D_NET *31 0.00499585
*CONN
*I *143:B1 I *D sky130_fd_sc_hd__o21ai_1
*I *139:C I *D sky130_fd_sc_hd__nand3_1
*I *141:B1_N I *D sky130_fd_sc_hd__a21bo_1
*I *138:Y O *D sky130_fd_sc_hd__a21oi_1
*CAP
1 *143:B1 0
2 *139:C 0.000345698
3 *141:B1_N 5.45698e-05
4 *138:Y 0
5 *31:36 0.000101144
6 *31:10 0.00142031
7 *31:4 0.00112119
8 *139:C *49:8 0.000119745
9 *31:10 *32:14 0.000318482
10 *31:10 *39:14 0.000654168
11 *31:10 *40:10 0.000430638
12 *31:10 *43:22 3.29546e-05
13 *31:10 *43:28 4.76012e-05
14 *31:36 *143:A2 5.3304e-05
15 *31:36 *33:10 8.16253e-05
16 *31:36 *35:18 0.000161121
17 *31:36 *44:35 5.3304e-05
18 *26:10 *139:C 0
19 *26:10 *31:10 0
*RES
1 *138:Y *31:4 23 
2 *31:4 *31:10 37.4336 
3 *31:10 *141:B1_N 38.6214 
4 *31:10 *139:C 45.1879 
5 *31:4 *31:36 32.8793 
6 *31:36 *143:B1 23 
*END

*D_NET *32 0.00712943
*CONN
*I *147:A2 I *D sky130_fd_sc_hd__o21ba_1
*I *141:A2 I *D sky130_fd_sc_hd__a21bo_1
*I *140:X O *D sky130_fd_sc_hd__or2_1
*CAP
1 *147:A2 2.1727e-05
2 *141:A2 0
3 *140:X 0.000171196
4 *32:29 0.000738627
5 *32:14 0.00152098
6 *32:8 0.000975271
7 *32:14 *42:94 5.3304e-05
8 *32:14 *42:102 0.00130144
9 *32:14 *43:36 0
10 *32:14 *43:42 0
11 *32:14 *44:66 0
12 *32:29 *155:CLK 0.000428691
13 *32:29 *159:A 7.27182e-05
14 *32:29 *33:23 5.50049e-05
15 *32:29 *37:10 0.000130424
16 *32:29 *38:10 0
17 *32:29 *42:94 0.000567683
18 *32:29 *47:6 0.000491869
19 *139:B *32:29 5.12254e-05
20 *155:RESET_B *32:29 0.000136486
21 *25:38 *147:A2 4.00259e-06
22 *26:10 *32:14 7.90568e-05
23 *30:10 *32:29 1.12487e-05
24 *31:10 *32:14 0.000318482
*RES
1 *140:X *32:8 40.0507 
2 *32:8 *32:14 38.0757 
3 *32:14 *141:A2 23 
4 *32:14 *32:29 49.8443 
5 *32:29 *147:A2 23.4971 
*END

*D_NET *33 0.00478461
*CONN
*I *147:A1 I *D sky130_fd_sc_hd__o21ba_1
*I *143:A1 I *D sky130_fd_sc_hd__o21ai_1
*I *142:Y O *D sky130_fd_sc_hd__inv_2
*CAP
1 *147:A1 0
2 *143:A1 0
3 *142:Y 0.000779695
4 *33:23 0.000571768
5 *33:10 0.000818563
6 *33:8 0.00102649
7 *33:10 *35:18 7.04557e-05
8 *33:10 *44:18 0.000242657
9 *33:10 *45:16 2.35393e-05
10 *33:10 *45:24 3.83778e-05
11 *33:23 *159:A 6.72852e-05
12 *33:23 *35:18 4.27916e-05
13 *33:23 *38:44 0.000164282
14 *33:23 *42:88 4.90891e-05
15 *33:23 *42:94 6.60662e-05
16 *33:23 *44:18 2.55642e-05
17 *33:23 *45:16 5.62433e-05
18 *33:23 *45:100 0.000201055
19 *4:23 *33:23 0
20 *17:8 *33:23 0
21 *25:18 *33:23 0
22 *25:38 *33:23 0.000404056
23 *30:10 *33:23 0
24 *31:36 *33:10 8.16253e-05
25 *32:29 *33:23 5.50049e-05
*RES
1 *142:Y *33:8 47.1971 
2 *33:8 *33:10 5.075 
3 *33:10 *143:A1 38 
4 *33:10 *33:23 29.5 
5 *33:23 *147:A1 23 
*END

*D_NET *34 0.00385763
*CONN
*I *145:A I *D sky130_fd_sc_hd__buf_1
*I *144:X O *D sky130_fd_sc_hd__or3_1
*CAP
1 *145:A 0
2 *144:X 4.99221e-05
3 *34:12 0.00057203
4 *34:8 0.000621952
5 *34:12 *161:A 0.000114165
6 *34:12 *38:59 0.000223034
7 *34:12 *39:8 0.000326131
8 *34:12 *42:14 0.000196822
9 *34:12 *42:16 6.32792e-05
10 *34:12 *43:10 0.000169674
11 *34:12 *48:14 0.000543955
12 count[0] *34:12 0
13 *134:B *34:12 6.16439e-05
14 *24:12 *34:8 5.3304e-05
15 *27:10 *34:12 0.000861723
*RES
1 *144:X *34:8 38.6214 
2 *34:8 *34:12 36.9779 
3 *34:12 *145:A 23 
*END

*D_NET *35 0.00599011
*CONN
*I *159:A I *D sky130_fd_sc_hd__clkbuf_16
*I *158:A I *D sky130_fd_sc_hd__clkbuf_16
*I *157:X O *D sky130_fd_sc_hd__clkbuf_16
*CAP
1 *159:A 0.000482162
2 *158:A 0
3 *157:X 0.000268651
4 *35:18 0.000757821
5 *35:8 0.00150863
6 *159:A *144:B 2.26489e-05
7 *159:A *43:117 0.000133316
8 *159:A *45:100 0.000127272
9 *159:A *47:12 0
10 *35:8 *38:59 3.70071e-06
11 *35:8 *47:6 0.00026025
12 *35:18 *43:117 0.000126042
13 *35:18 *45:24 0
14 *35:18 *45:100 0.000326983
15 *152:RESET_B *159:A 0
16 *153:D *35:18 0
17 *153:RESET_B *35:18 0.000441326
18 *20:12 *35:18 0.000607549
19 *21:8 *35:18 0.000185434
20 *25:38 *159:A 0.000323945
21 *31:36 *35:18 0.000161121
22 *32:29 *159:A 7.27182e-05
23 *33:10 *35:18 7.04557e-05
24 *33:23 *159:A 6.72852e-05
25 *33:23 *35:18 4.27916e-05
*RES
1 *157:X *35:8 41.48 
2 *35:8 *35:18 35.2171 
3 *35:18 *158:A 23 
4 *35:8 *159:A 48.4814 
*END

*D_NET *36 0.00336965
*CONN
*I *154:CLK I *D sky130_fd_sc_hd__dfrtp_4
*I *153:CLK I *D sky130_fd_sc_hd__dfrtp_4
*I *158:X O *D sky130_fd_sc_hd__clkbuf_16
*CAP
1 *154:CLK 0.000388515
2 *153:CLK 0
3 *158:X 0.000484138
4 *36:10 0.000559107
5 *36:8 0.00065473
6 *154:CLK *44:12 6.11289e-05
7 *154:CLK *44:35 0
8 *154:CLK *45:16 5.83085e-05
9 *154:CLK *45:24 6.3732e-05
10 *36:10 *45:24 0.000233442
11 *18:8 *36:8 0.000139357
12 *21:8 *36:8 0.000234159
13 *25:18 *154:CLK 0.000160191
14 *30:10 *154:CLK 9.69223e-05
15 *30:10 *36:10 0.000235918
*RES
1 *158:X *36:8 46.2443 
2 *36:8 *36:10 6.13143 
3 *36:10 *153:CLK 38 
4 *36:10 *154:CLK 46.12 
*END

*D_NET *37 0.00325634
*CONN
*I *152:CLK I *D sky130_fd_sc_hd__dfrtp_4
*I *155:CLK I *D sky130_fd_sc_hd__dfrtp_4
*I *159:X O *D sky130_fd_sc_hd__clkbuf_16
*CAP
1 *152:CLK 0
2 *155:CLK 0.0003013
3 *159:X 0.000340181
4 *37:10 0.000641482
5 *155:CLK *45:12 7.28721e-05
6 *139:B *37:10 0.000402669
7 *155:RESET_B *155:CLK 9.66035e-05
8 *20:12 *155:CLK 6.59897e-05
9 *30:10 *155:CLK 0.000634263
10 *30:10 *37:10 0.000141869
11 *32:29 *155:CLK 0.000428691
12 *32:29 *37:10 0.000130424
*RES
1 *159:X *37:10 44.3386 
2 *37:10 *155:CLK 48.1707 
3 *37:10 *152:CLK 38 
*END

*D_NET *38 0.00891897
*CONN
*I *151:A I *D sky130_fd_sc_hd__inv_2
*I *150:A I *D sky130_fd_sc_hd__inv_2
*I *148:A I *D sky130_fd_sc_hd__inv_2
*I *149:A I *D sky130_fd_sc_hd__inv_2
*I *160:X O *D sky130_fd_sc_hd__clkbuf_2
*CAP
1 *151:A 0
2 *150:A 0
3 *148:A 4.86104e-05
4 *149:A 0.000529051
5 *160:X 0.000634051
6 *38:59 0.00059628
7 *38:44 0.000147877
8 *38:36 0.00126741
9 *38:12 0.00135838
10 *38:10 0.00193802
11 *148:A *42:112 2.18506e-05
12 *149:A *42:112 5.56203e-05
13 *149:A *43:34 1.00084e-05
14 *149:A *43:36 0.000242831
15 *149:A *43:42 0.000164019
16 *149:A *45:39 0
17 *38:12 *43:28 7.5153e-05
18 *38:12 *43:34 0.000404099
19 *38:36 *42:94 0.000303811
20 *38:36 *47:6 2.31797e-05
21 *38:44 *45:100 9.75779e-05
22 *38:59 *171:A 5.50106e-05
23 *38:59 *42:12 1.01436e-05
24 *38:59 *42:14 0.000272312
25 *38:59 *47:6 0.000102267
26 *38:59 *48:14 2.24973e-05
27 *155:RESET_B *38:10 0
28 *155:RESET_B *38:12 0
29 *4:23 *38:44 3.87221e-06
30 *18:8 *148:A 5.73309e-05
31 *20:12 *38:44 3.16784e-05
32 *23:10 *38:12 0
33 *24:12 *38:59 5.50106e-05
34 *25:18 *38:44 0
35 *30:10 *149:A 0
36 *30:10 *38:12 0
37 *32:29 *38:10 0
38 *33:23 *38:44 0.000164282
39 *34:12 *38:59 0.000223034
40 *35:8 *38:59 3.70071e-06
*RES
1 *160:X *38:10 48.0879 
2 *38:10 *38:12 15.9914 
3 *38:12 *149:A 48.5229 
4 *38:12 *148:A 39.0979 
5 *38:10 *38:36 22.2914 
6 *38:36 *38:44 33.3557 
7 *38:44 *150:A 23 
8 *38:36 *38:59 40.15 
9 *38:59 *151:A 23 
*END

*D_NET *39 0.00524383
*CONN
*I *161:A I *D sky130_fd_sc_hd__buf_1
*I *146:A2 I *D sky130_fd_sc_hd__o21ba_1
*I *145:X O *D sky130_fd_sc_hd__buf_1
*CAP
1 *161:A 0.000181584
2 *146:A2 0
3 *145:X 0.000386745
4 *39:14 0.000436882
5 *39:8 0.00100521
6 *161:A *41:12 0.000408147
7 *161:A *48:14 0.000169683
8 *39:8 *41:12 3.70094e-05
9 *39:8 *43:10 0.000167452
10 *39:14 *146:A1 5.90675e-06
11 *39:14 *40:10 5.6241e-05
12 *39:14 *43:14 0.000341983
13 *39:14 *43:16 9.41704e-05
14 *39:14 *43:18 0.000140259
15 *39:14 *43:22 0.000204594
16 an *39:8 2.90981e-05
17 seg[6] *39:8 3.97478e-05
18 *25:18 *39:14 0.000184402
19 *27:8 *39:14 0.00026025
20 *31:10 *39:14 0.000654168
21 *34:12 *161:A 0.000114165
22 *34:12 *39:8 0.000326131
*RES
1 *145:X *39:8 48.7093 
2 *39:8 *39:14 28.5057 
3 *39:14 *146:A2 23 
4 *39:8 *161:A 44.0486 
*END

*D_NET *40 0.00291942
*CONN
*I *162:A I *D sky130_fd_sc_hd__buf_1
*I *146:X O *D sky130_fd_sc_hd__o21ba_1
*CAP
1 *162:A 0.000198586
2 *146:X 0.000619299
3 *40:10 0.000817885
4 *162:A *143:A2 2.02872e-05
5 *162:A *44:35 9.41704e-05
6 *162:A *48:8 0.000261956
7 *152:RESET_B *40:10 0.000161121
8 *27:8 *40:10 9.5877e-05
9 *29:12 *40:10 0.000163361
10 *31:10 *40:10 0.000430638
11 *39:14 *40:10 5.6241e-05
*RES
1 *146:X *40:10 47.5493 
2 *40:10 *162:A 41.9564 
*END

*D_NET *41 0.0030354
*CONN
*I *163:A I *D sky130_fd_sc_hd__buf_1
*I *147:X O *D sky130_fd_sc_hd__o21ba_1
*CAP
1 *163:A 0
2 *147:X 0.000360907
3 *41:12 0.000636406
4 *41:8 0.000997313
5 *41:8 *48:14 5.12254e-05
6 *41:12 *48:14 0.00040169
7 seg[2] *41:12 6.29881e-05
8 seg[3] *41:12 1.27424e-05
9 seg[4] *41:12 5.42258e-05
10 seg[5] *41:12 1.27424e-05
11 *161:A *41:12 0.000408147
12 *39:8 *41:12 3.70094e-05
*RES
1 *147:X *41:8 42.4329 
2 *41:8 *41:12 31.3436 
3 *41:12 *163:A 23 
*END

*D_NET *42 0.0164223
*CONN
*I *129:A I *D sky130_fd_sc_hd__nor2_1
*I *141:A1 I *D sky130_fd_sc_hd__a21bo_1
*I *130:B I *D sky130_fd_sc_hd__xor2_1
*I *131:B I *D sky130_fd_sc_hd__or4b_1
*I *144:A I *D sky130_fd_sc_hd__or3_1
*I *143:A2 I *D sky130_fd_sc_hd__o21ai_1
*I *132:B I *D sky130_fd_sc_hd__nand3_1
*I *164:A I *D sky130_fd_sc_hd__buf_1
*I *133:A2 I *D sky130_fd_sc_hd__a21o_1
*I *137:D_N I *D sky130_fd_sc_hd__or4b_1
*I *152:Q O *D sky130_fd_sc_hd__dfrtp_4
*CAP
1 *129:A 0
2 *141:A1 0
3 *130:B 0
4 *131:B 0
5 *144:A 2.32701e-05
6 *143:A2 0.000292904
7 *132:B 0.000240509
8 *164:A 0.000174219
9 *133:A2 2.1727e-05
10 *137:D_N 8.9921e-05
11 *152:Q 0.000162882
12 *42:112 0.000288766
13 *42:102 0.000758273
14 *42:94 0.000933911
15 *42:88 0.00110946
16 *42:24 0.000281682
17 *42:18 0.000561733
18 *42:16 0.000567867
19 *42:14 0.000672184
20 *42:12 0.000378928
21 *42:10 0.000894196
22 *132:B *132:C 0.000137651
23 *132:B *138:B1 0
24 *132:B *43:14 3.59538e-05
25 *132:B *43:16 5.50106e-05
26 *133:A2 *137:B 4.00259e-06
27 *137:D_N *137:B 5.10686e-05
28 *137:D_N *165:A 4.17736e-05
29 *137:D_N *43:53 0.000225393
30 *137:D_N *44:86 5.3304e-05
31 *143:A2 *44:35 0.00024664
32 *144:A *171:A 5.3304e-05
33 *42:10 *46:12 3.0647e-05
34 *42:10 *47:12 5.46706e-05
35 *42:12 *46:12 5.31444e-05
36 *42:12 *47:12 0.000150977
37 *42:12 *48:14 1.06693e-05
38 *42:14 *44:37 2.46345e-05
39 *42:14 *44:125 8.4047e-05
40 *42:14 *47:12 0.000161121
41 *42:16 *44:37 0.00021356
42 *42:16 *44:39 2.46345e-05
43 *42:18 *44:39 0.000772275
44 *42:24 *165:A 0.000178517
45 *42:24 *166:A 0.000108681
46 *42:24 *44:39 9.26098e-05
47 *42:94 *47:6 0.000127754
48 *42:112 *130:A 5.40241e-05
49 *134:B *42:18 3.47781e-05
50 *134:B *42:24 0.000192077
51 *136:B *164:A 5.3304e-05
52 *148:A *42:112 2.18506e-05
53 *149:A *42:112 5.56203e-05
54 *152:RESET_B *42:14 0.000195687
55 *152:RESET_B *42:88 1.67826e-05
56 *162:A *143:A2 2.02872e-05
57 *4:23 *42:94 3.70187e-05
58 *17:8 *42:88 4.334e-05
59 *18:8 *42:112 5.50049e-05
60 *24:12 *144:A 5.3304e-05
61 *25:18 *42:94 5.51222e-05
62 *26:10 *42:102 0.00129383
63 *27:10 *42:16 0.000111852
64 *27:10 *42:18 0.000746711
65 *30:10 *42:88 0
66 *31:36 *143:A2 5.3304e-05
67 *32:14 *42:94 5.3304e-05
68 *32:14 *42:102 0.00130144
69 *32:29 *42:94 0.000567683
70 *33:23 *42:88 4.90891e-05
71 *33:23 *42:94 6.60662e-05
72 *34:12 *42:14 0.000196822
73 *34:12 *42:16 6.32792e-05
74 *38:36 *42:94 0.000303811
75 *38:59 *42:12 1.01436e-05
76 *38:59 *42:14 0.000272312
*RES
1 *152:Q *42:10 40.9 
2 *42:10 *42:12 2.25786 
3 *42:12 *42:14 8.94857 
4 *42:14 *42:16 3.31429 
5 *42:16 *42:18 10.3571 
6 *42:18 *42:24 19.6607 
7 *42:24 *137:D_N 26.0036 
8 *42:24 *133:A2 23.4971 
9 *42:18 *164:A 41.0243 
10 *42:16 *132:B 41.6457 
11 *42:14 *143:A2 42.4329 
12 *42:12 *144:A 38.6214 
13 *42:10 *42:88 38.5964 
14 *42:88 *42:94 27.6357 
15 *42:94 *42:102 48.6221 
16 *42:102 *42:112 35.0543 
17 *42:112 *131:B 23 
18 *42:102 *130:B 23 
19 *42:94 *141:A1 23 
20 *42:88 *129:A 38 
*END

*D_NET *43 0.0111712
*CONN
*I *128:A I *D sky130_fd_sc_hd__nor3b_1
*I *132:A I *D sky130_fd_sc_hd__nand3_1
*I *138:A1 I *D sky130_fd_sc_hd__a21oi_1
*I *146:A1 I *D sky130_fd_sc_hd__o21ba_1
*I *142:A I *D sky130_fd_sc_hd__inv_2
*I *130:A I *D sky130_fd_sc_hd__xor2_1
*I *131:A I *D sky130_fd_sc_hd__or4b_1
*I *165:A I *D sky130_fd_sc_hd__buf_1
*I *133:A1 I *D sky130_fd_sc_hd__a21o_1
*I *137:A I *D sky130_fd_sc_hd__or4b_1
*I *153:Q O *D sky130_fd_sc_hd__dfrtp_4
*CAP
1 *128:A 0
2 *132:A 0
3 *138:A1 0
4 *146:A1 2.14194e-05
5 *142:A 0
6 *130:A 5.11342e-05
7 *131:A 0
8 *165:A 0.00041838
9 *133:A1 0
10 *137:A 2.34823e-05
11 *153:Q 0.000194756
12 *43:117 0.000397677
13 *43:53 0.000783376
14 *43:42 0.000736058
15 *43:36 0.000490527
16 *43:34 0.000436387
17 *43:28 0.000440472
18 *43:22 0.000587218
19 *43:18 0.000410618
20 *43:16 8.27783e-05
21 *43:14 0.00060695
22 *43:10 0.000364237
23 *137:A *137:C 0
24 *43:14 *132:C 0.000137651
25 *43:18 *138:B1 7.23821e-05
26 *43:22 *138:B1 0.0001082
27 *43:42 *137:C 0.000123685
28 *43:42 *140:B 0.000274514
29 *43:42 *44:66 0.000112446
30 *43:53 *137:B 9.8971e-06
31 *43:53 *137:C 1.76557e-05
32 *43:117 *44:125 0.000382062
33 *132:B *43:14 3.59538e-05
34 *132:B *43:16 5.50106e-05
35 *137:D_N *165:A 4.17736e-05
36 *137:D_N *43:53 0.000225393
37 *149:A *43:34 1.00084e-05
38 *149:A *43:36 0.000242831
39 *149:A *43:42 0.000164019
40 *152:RESET_B *43:117 1.27508e-05
41 *159:A *43:117 0.000133316
42 *20:12 *43:117 0.000500354
43 *25:18 *43:22 0.000186108
44 *29:12 *43:117 0.000237265
45 *31:10 *43:22 3.29546e-05
46 *31:10 *43:28 4.76012e-05
47 *32:14 *43:36 0
48 *32:14 *43:42 0
49 *34:12 *43:10 0.000169674
50 *35:18 *43:117 0.000126042
51 *38:12 *43:28 7.5153e-05
52 *38:12 *43:34 0.000404099
53 *39:8 *43:10 0.000167452
54 *39:14 *146:A1 5.90675e-06
55 *39:14 *43:14 0.000341983
56 *39:14 *43:16 9.41704e-05
57 *39:14 *43:18 0.000140259
58 *39:14 *43:22 0.000204594
59 *42:24 *165:A 0.000178517
60 *42:112 *130:A 5.40241e-05
*RES
1 *153:Q *43:10 42.3086 
2 *43:10 *43:14 18.9564 
3 *43:14 *43:16 1.09786 
4 *43:16 *43:18 1.57429 
5 *43:18 *43:22 7.78857 
6 *43:22 *43:28 18.8321 
7 *43:28 *43:34 6.54571 
8 *43:34 *43:36 3.31429 
9 *43:36 *43:42 23.12 
10 *43:42 *137:A 23.4971 
11 *43:42 *43:53 5.40643 
12 *43:53 *133:A1 23 
13 *43:53 *165:A 28.7586 
14 *43:36 *131:A 38 
15 *43:34 *130:A 39.0979 
16 *43:28 *142:A 38 
17 *43:22 *146:A1 23.4971 
18 *43:18 *138:A1 23 
19 *43:16 *132:A 23 
20 *43:14 *43:117 42.18 
21 *43:117 *128:A 23 
*END

*D_NET *44 0.014027
*CONN
*I *144:B I *D sky130_fd_sc_hd__or3_1
*I *128:C_N I *D sky130_fd_sc_hd__nor3b_1
*I *132:C I *D sky130_fd_sc_hd__nand3_1
*I *133:B1 I *D sky130_fd_sc_hd__a21o_1
*I *137:B I *D sky130_fd_sc_hd__or4b_1
*I *131:D_N I *D sky130_fd_sc_hd__or4b_1
*I *140:A I *D sky130_fd_sc_hd__or2_1
*I *166:A I *D sky130_fd_sc_hd__buf_1
*I *138:A2 I *D sky130_fd_sc_hd__a21oi_1
*I *154:Q O *D sky130_fd_sc_hd__dfrtp_4
*CAP
1 *144:B 9.70716e-05
2 *128:C_N 1.50079e-05
3 *132:C 4.62547e-05
4 *133:B1 0
5 *137:B 0.000173709
6 *131:D_N 2.41702e-05
7 *140:A 0
8 *166:A 0.000313773
9 *138:A2 0
10 *154:Q 0.00085787
11 *44:125 0.000508105
12 *44:86 0.000285394
13 *44:66 0.000304793
14 *44:58 0.00086038
15 *44:56 0.000835904
16 *44:39 0.000793796
17 *44:37 0.000437741
18 *44:35 0.00074024
19 *44:18 0.000108865
20 *44:12 0.00120669
21 *128:C_N *144:C 5.50049e-05
22 *128:C_N *171:A 5.50049e-05
23 *144:B *46:6 5.50106e-05
24 *166:A *45:67 0.000314543
25 *44:18 *45:16 0.00026506
26 *44:35 *48:8 0.000107991
27 *44:39 *45:67 2.60152e-05
28 *44:56 *45:59 7.15126e-05
29 *44:58 *131:C 3.23676e-05
30 *44:58 *45:26 0.000109138
31 *44:58 *45:59 0.000168975
32 *44:66 *131:C 5.06606e-05
33 *44:125 *48:8 9.58714e-05
34 *132:B *132:C 0.000137651
35 *133:A2 *137:B 4.00259e-06
36 *134:B *166:A 0.00014692
37 *136:B *44:56 1.39317e-05
38 *137:D_N *137:B 5.10686e-05
39 *137:D_N *44:86 5.3304e-05
40 *143:A2 *44:35 0.00024664
41 *152:RESET_B *144:B 3.83778e-05
42 *152:RESET_B *44:37 0.000228051
43 *152:RESET_B *44:39 0.000596385
44 *152:RESET_B *44:125 0.000443543
45 *153:RESET_B *44:86 0.000133316
46 *154:CLK *44:12 6.11289e-05
47 *154:CLK *44:35 0
48 *159:A *144:B 2.26489e-05
49 *162:A *44:35 9.41704e-05
50 *19:10 *44:12 0.000137651