*SPEF "ieee 1481-1999"
*DESIGN "zero2five_counter"
*DATE "10:43:30 Sunday May 25, 2025"
*VENDOR "The OpenROAD Project"
*PROGRAM "OpenROAD"
*VERSION "b16bda7e82721d10566ff7e2b68f1ff0be9f9e38"
*DESIGN_FLOW "NAME_SCOPE LOCAL" "PIN_CAP NONE"
*DIVIDER /
*DELIMITER :
*BUS_DELIMITER []
*T_UNIT 1 NS
*C_UNIT 1 PF
*R_UNIT 1 OHM
*L_UNIT 1 HENRY

*NAME_MAP
*3 net13
*4 clk
*5 count[0]
*6 count[1]
*7 count[2]
*8 count[3]
*9 rst
*10 seg[0]
*11 seg[1]
*12 seg[2]
*13 seg[3]
*14 seg[4]
*15 seg[5]
*16 seg[6]
*17 _00_
*18 _01_
*19 _02_
*20 _03_
*21 _04_
*22 _05_
*23 _06_
*24 _07_
*25 _08_
*26 _09_
*27 _10_
*28 _11_
*29 _12_
*30 _13_
*31 _14_
*32 _15_
*33 _16_
*34 _17_
*35 clknet_0_clk
*36 clknet_1_0__leaf_clk
*37 clknet_1_1__leaf_clk
*38 net1
*39 net10
*40 net11
*41 net12
*42 net2
*43 net3
*44 net4
*45 net5
*46 net6
*47 net7
*48 net8
*49 net9
*50 FILLER_0_0_15
*51 FILLER_0_0_20
*52 FILLER_0_0_3
*53 FILLER_0_0_34
*54 FILLER_0_10_21
*55 FILLER_0_10_29
*56 FILLER_0_10_3
*57 FILLER_0_10_9
*58 FILLER_0_11_19
*59 FILLER_0_11_45
*60 FILLER_0_11_7
*61 FILLER_0_12_3
*62 FILLER_0_12_37
*63 FILLER_0_1_15
*64 FILLER_0_1_3
*65 FILLER_0_1_37
*66 FILLER_0_1_9
*67 FILLER_0_2_19
*68 FILLER_0_2_27
*69 FILLER_0_2_29
*70 FILLER_0_2_3
*71 FILLER_0_2_40
*72 FILLER_0_3_19
*73 FILLER_0_3_27
*74 FILLER_0_3_3
*75 FILLER_0_4_15
*76 FILLER_0_4_27
*77 FILLER_0_4_29
*78 FILLER_0_4_3
*79 FILLER_0_4_41
*80 FILLER_0_5_13
*81 FILLER_0_5_3
*82 FILLER_0_5_9
*83 FILLER_0_6_23
*84 FILLER_0_6_27
*85 FILLER_0_6_3
*86 FILLER_0_6_37
*87 FILLER_0_7_3
*88 FILLER_0_7_37
*89 FILLER_0_8_26
*90 FILLER_0_8_32
*91 FILLER_0_8_44
*92 FILLER_0_9_11
*93 FILLER_0_9_23
*94 FILLER_0_9_46
*95 PHY_EDGE_ROW_0_Left_13
*96 PHY_EDGE_ROW_0_Right_0
*97 PHY_EDGE_ROW_10_Left_23
*98 PHY_EDGE_ROW_10_Right_10
*99 PHY_EDGE_ROW_11_Left_24
*100 PHY_EDGE_ROW_11_Right_11
*101 PHY_EDGE_ROW_12_Left_25
*102 PHY_EDGE_ROW_12_Right_12
*103 PHY_EDGE_ROW_1_Left_14
*104 PHY_EDGE_ROW_1_Right_1
*105 PHY_EDGE_ROW_2_Left_15
*106 PHY_EDGE_ROW_2_Right_2
*107 PHY_EDGE_ROW_3_Left_16
*108 PHY_EDGE_ROW_3_Right_3
*109 PHY_EDGE_ROW_4_Left_17
*110 PHY_EDGE_ROW_4_Right_4
*111 PHY_EDGE_ROW_5_Left_18
*112 PHY_EDGE_ROW_5_Right_5
*113 PHY_EDGE_ROW_6_Left_19
*114 PHY_EDGE_ROW_6_Right_6
*115 PHY_EDGE_ROW_7_Left_20
*116 PHY_EDGE_ROW_7_Right_7
*117 PHY_EDGE_ROW_8_Left_21
*118 PHY_EDGE_ROW_8_Right_8
*119 PHY_EDGE_ROW_9_Left_22
*120 PHY_EDGE_ROW_9_Right_9
*121 TAP_TAPCELL_ROW_0_26
*122 TAP_TAPCELL_ROW_10_31
*123 TAP_TAPCELL_ROW_12_32
*124 TAP_TAPCELL_ROW_2_27
*125 TAP_TAPCELL_ROW_4_28
*126 TAP_TAPCELL_ROW_6_29
*127 TAP_TAPCELL_ROW_8_30
*128 _18_
*129 _19_
*130 _20_
*131 _21_
*132 _22_
*133 _23_
*134 _24_
*135 _25_
*136 _26_
*137 _27_
*138 _28_
*139 _29_
*140 _30_
*141 _31_
*142 _32_
*143 _33_
*144 _34_
*145 _35_
*146 _36_
*147 _37_
*148 _38_
*149 _39_
*150 _40_
*151 _41_
*152 _42_
*153 _43_
*154 _44_
*155 _45_
*156 _47_
*157 clkbuf_0_clk
*158 clkbuf_1_0__f_clk
*159 clkbuf_1_1__f_clk
*160 input1
*161 output10
*162 output11
*163 output12
*164 output2
*165 output3
*166 output4
*167 output5
*168 output6
*169 output7
*170 output8
*171 output9
*172 zero2five_counter_13

*PORTS
an O
clk I
count[0] O
count[1] O
count[2] O
count[3] O
rst I
seg[0] O
seg[1] O
seg[2] O
seg[3] O
seg[4] O
seg[5] O
seg[6] O

*D_NET *3 0.000422867
*CONN
*P an O
*I *172:LO O *D sky130_fd_sc_hd__conb_1
*CAP
1 an 0.000196933
2 *172:LO 0.000196933
3 an count[0] 0
4 an seg[6] 0
5 an *39:8 2.90019e-05
*RES
1 *172:LO an 5.2985 
*END

*D_NET *4 0.00598288
*CONN
*P clk I
*I *157:A I *D sky130_fd_sc_hd__clkbuf_16
*CAP
1 clk 0.00289464
2 *157:A 0.00289464
3 *157:A *139:B 0.000113812
4 *157:A *146:B1_N 4.42508e-05
5 *157:A *147:A1 0
6 *157:A *150:A 4.61701e-06
7 *157:A *42:94 3.09233e-05
*RES
1 clk *157:A 10.8602 
*END

*D_NET *5 0.000360662
*CONN
*P count[0] O
*I *164:X O *D sky130_fd_sc_hd__buf_1
*CAP
1 count[0] 0.000180331
2 *164:X 0.000180331
3 count[0] count[1] 0
4 count[0] *145:A 0
5 an count[0] 0
*RES
1 *164:X count[0] 4.7885 
*END

*D_NET *6 0.000368909
*CONN
*P count[1] O
*I *165:X O *D sky130_fd_sc_hd__buf_1
*CAP
1 count[1] 0.000184455
2 *165:X 0.000184455
3 count[1] count[2] 0
4 count[1] *134:B 0
5 count[0] count[1] 0
*RES
1 *165:X count[1] 4.7885 
*END

*D_NET *7 0.000491016
*CONN
*P count[2] O
*I *166:X O *D sky130_fd_sc_hd__buf_1
*CAP
1 count[2] 0.00022349
2 *166:X 0.00022349
3 count[2] count[3] 4.40358e-05
4 count[1] count[2] 0
*RES
1 *166:X count[2] 5.8085 
*END

*D_NET *8 0.000961078
*CONN
*P count[3] O
*I *167:X O *D sky130_fd_sc_hd__buf_1
*CAP
1 count[3] 0.000458521
2 *167:X 0.000458521
3 count[2] count[3] 4.40358e-05
*RES
1 *167:X count[3] 9.0433 
*END

*D_NET *9 0.000614715
*CONN
*P rst I
*I *160:A I *D sky130_fd_sc_hd__clkbuf_2
*CAP
1 rst 0.000307357
2 *160:A 0.000307357
*RES
1 rst *160:A 7.4343 
*END

*D_NET *10 0.000934801
*CONN
*P seg[0] O
*I *168:X O *D sky130_fd_sc_hd__buf_1
*CAP
1 seg[0] 0.000456928
2 *168:X 0.000456928
3 seg[0] seg[1] 2.09442e-05
*RES
1 *168:X seg[0] 8.5333 
*END

*D_NET *11 0.000745055
*CONN
*P seg[1] O
*I *169:X O *D sky130_fd_sc_hd__buf_1
*CAP
1 seg[1] 0.000362055
2 *169:X 0.000362055
3 seg[1] seg[2] 0
4 seg[0] seg[1] 2.09442e-05
*RES
1 *169:X seg[1] 5.6481 
*END

*D_NET *12 0.000515422
*CONN
*P seg[2] O
*I *170:X O *D sky130_fd_sc_hd__buf_1
*CAP
1 seg[2] 0.000228308
2 *170:X 0.000228308
3 seg[2] seg[3] 0
4 seg[2] *163:A 5.8807e-05
5 seg[1] seg[2] 0
*RES
1 *170:X seg[2] 5.8085 
*END

*D_NET *13 0.000376931
*CONN
*P seg[3] O
*I *171:X O *D sky130_fd_sc_hd__buf_1
*CAP
1 seg[3] 0.00018261
2 *171:X 0.00018261
3 seg[3] seg[4] 0
4 seg[3] *163:A 1.17114e-05
5 seg[2] seg[3] 0
*RES
1 *171:X seg[3] 4.7885 
*END

*D_NET *14 0.000475892
*CONN
*P seg[4] O
*I *161:X O *D sky130_fd_sc_hd__buf_1
*CAP
1 seg[4] 0.000212991
2 *161:X 0.000212991
3 seg[4] seg[5] 0
4 seg[4] *163:A 4.99102e-05
5 seg[3] seg[4] 0
*RES
1 *161:X seg[4] 5.5535 
*END

*D_NET *15 0.00036951
*CONN
*P seg[5] O
*I *162:X O *D sky130_fd_sc_hd__buf_1
*CAP
1 seg[5] 0.000178899
2 *162:X 0.000178899
3 seg[5] seg[6] 0
4 seg[5] *163:A 1.17114e-05
5 seg[4] seg[5] 0
*RES
1 *162:X seg[5] 4.7885 
*END

*D_NET *16 0.000509058
*CONN
*P seg[6] O
*I *163:X O *D sky130_fd_sc_hd__buf_1
*CAP
1 seg[6] 0.000233983
2 *163:X 0.000233983
3 seg[6] *39:8 4.10914e-05
4 an seg[6] 0
5 seg[5] seg[6] 0
*RES
1 *163:X seg[6] 5.8085 
*END

*D_NET *17 0.000200457
*CONN
*I *152:D I *D sky130_fd_sc_hd__dfrtp_4
*I *129:Y O *D sky130_fd_sc_hd__nor2_1
*CAP
1 *152:D 4.62565e-05
2 *129:Y 4.62565e-05
3 *152:D *139:B 6.74079e-05
4 *152:D *147:A1 0
5 *152:D *42:88 4.05358e-05
*RES
1 *129:Y *152:D 8.58 
*END

*D_NET *18 0.00169703
*CONN
*I *153:D I *D sky130_fd_sc_hd__dfrtp_4
*I *130:X O *D sky130_fd_sc_hd__xor2_1
*CAP
1 *153:D 0.000345842
2 *130:X 0.000345842
3 *153:D *131:B 4.82863e-05
4 *153:D *148:A 4.94457e-05
5 *153:D *152:RESET_B 0.000419951
6 *153:D *158:A 0
7 *153:D *36:10 0.000122337
8 *153:D *45:24 0.000365327
*RES
1 *130:X *153:D 15.975 
*END

*D_NET *19 0.000880351
*CONN
*I *154:D I *D sky130_fd_sc_hd__dfrtp_4
*I *135:X O *D sky130_fd_sc_hd__clkbuf_1
*CAP
1 *154:D 0.000245789
2 *135:X 0.000245789
3 *154:D *146:B1_N 4.31921e-05
4 *154:D *170:A 4.66108e-05
5 *154:D *44:12 0.000120655
6 *154:D *44:35 0.000137005
7 *154:D *45:16 4.13092e-05
*RES
1 *135:X *154:D 10.935 
*END

*D_NET *20 0.00330929
*CONN
*I *155:D I *D sky130_fd_sc_hd__dfrtp_4
*I *136:Y O *D sky130_fd_sc_hd__xnor2_1
*CAP
1 *155:D 0.000673633
2 *136:Y 0.000673633
3 *155:D *128:A 0.000418731
4 *155:D *135:A 0.000359691
5 *155:D *150:A 3.03775e-05
6 *155:D *153:RESET_B 0.000521482
7 *155:D *155:CLK 6.20937e-05
8 *155:D *158:A 0.000511985
9 *155:D *45:12 3.69909e-05
10 *155:D *45:100 2.06746e-05
*RES
1 *136:Y *155:D 23.7225 
*END

*D_NET *21 0.00457722
*CONN
*I *152:RESET_B I *D sky130_fd_sc_hd__dfrtp_4
*I *148:Y O *D sky130_fd_sc_hd__inv_2
*CAP
1 *152:RESET_B 0.000845371
2 *148:Y 0.000845371
3 *152:RESET_B *128:A 1.32017e-05
4 *152:RESET_B *135:A 0.000317485
5 *152:RESET_B *144:B 3.67779e-05
6 *152:RESET_B *158:A 0.000163204
7 *152:RESET_B *159:A 0
8 *152:RESET_B *162:A 0.00013521
9 *152:RESET_B *169:A 0.000307361
10 *152:RESET_B *36:10 0.0002187
11 *152:RESET_B *42:14 0.00018118
12 *152:RESET_B *42:88 1.5913e-05
13 *152:RESET_B *44:37 0.000191202
14 *152:RESET_B *44:39 0.000497416
15 *152:RESET_B *44:125 0.000388881
16 *153:D *152:RESET_B 0.000419951
*RES
1 *148:Y *152:RESET_B 29.8775 
*END

*D_NET *22 0.00272149
*CONN
*I *153:RESET_B I *D sky130_fd_sc_hd__dfrtp_4
*I *149:Y O *D sky130_fd_sc_hd__inv_2
*CAP
1 *153:RESET_B 0.000746757
2 *149:Y 0.000746757
3 *153:RESET_B *134:A 0
4 *153:RESET_B *134:B 2.8185e-05
5 *153:RESET_B *134:C 9.3411e-05
6 *153:RESET_B *135:A 0.000105086
7 *153:RESET_B *158:A 0.000367688
8 *153:RESET_B *167:A 0
9 *153:RESET_B *44:86 0.000112123
10 *153:RESET_B *45:24 0
11 *155:D *153:RESET_B 0.000521482
*RES
1 *149:Y *153:RESET_B 21.695 
*END

*D_NET *23 0.00100355
*CONN
*I *154:RESET_B I *D sky130_fd_sc_hd__dfrtp_4
*I *150:Y O *D sky130_fd_sc_hd__inv_2
*CAP
1 *154:RESET_B 0.000304383
2 *150:Y 0.000304383
3 *154:RESET_B *139:B 4.94326e-05
4 *154:RESET_B *38:12 0
5 *154:RESET_B *45:12 0.000271308
6 *154:RESET_B *45:100 7.40446e-05
*RES
1 *150:Y *154:RESET_B 9.935 
*END

*D_NET *24 0.00276973
*CONN
*I *155:RESET_B I *D sky130_fd_sc_hd__dfrtp_4
*I *151:Y O *D sky130_fd_sc_hd__inv_2
*CAP
1 *155:RESET_B 0.00088892
2 *151:Y 0.00088892
3 *155:RESET_B *144:A 4.66108e-05
4 *155:RESET_B *144:C 0.000167606
5 *155:RESET_B *145:A 4.66108e-05
6 *155:RESET_B *146:B1_N 2.0514e-05
7 *155:RESET_B *147:A2 0.000114492
8 *155:RESET_B *151:A 4.82919e-05
9 *155:RESET_B *155:CLK 9.1535e-05
10 *155:RESET_B *171:A 0.000120566
11 *155:RESET_B *25:8 0.000236355
12 *155:RESET_B *38:10 0
13 *155:RESET_B *38:12 0
14 *155:RESET_B *45:12 8.01509e-05
15 *155:RESET_B *45:100 1.91597e-05
*RES
1 *151:Y *155:RESET_B 19.3325 
*END

*D_NET *25 0.00365353
*CONN
*I *147:B1_N I *D sky130_fd_sc_hd__o21ba_1
*I *129:B I *D sky130_fd_sc_hd__nor2_1
*I *146:B1_N I *D sky130_fd_sc_hd__o21ba_1
*I *128:Y O *D sky130_fd_sc_hd__nor3b_1
*CAP
1 *147:B1_N 0.000231545
2 *129:B 0
3 *146:B1_N 0.000331855
4 *128:Y 0
5 *25:8 0.00040357
6 *25:4 0.000303259
7 *146:B1_N *139:B 0.000696475
8 *146:B1_N *146:A2 0.000159324
9 *146:B1_N *147:A1 0
10 *146:B1_N *150:A 0
11 *146:B1_N *154:CLK 0.000134516
12 *146:B1_N *171:A 4.82919e-05
13 *146:B1_N *42:94 5.72829e-05
14 *146:B1_N *43:22 0.000161005
15 *146:B1_N *45:16 0
16 *147:B1_N *147:A1 0.000337531
17 *147:B1_N *147:A2 4.00541e-06
18 *147:B1_N *159:A 0.000281715
19 *147:B1_N *45:100 3.09233e-05
20 *25:8 *171:A 0.000127921
21 *154:D *146:B1_N 4.31921e-05
22 *155:RESET_B *146:B1_N 2.0514e-05
23 *155:RESET_B *25:8 0.000236355
24 *157:A *146:B1_N 4.42508e-05
*RES
1 *128:Y *25:4 1.6 
2 *25:4 *25:8 2.535 
3 *25:8 *146:B1_N 15.8 
4 *25:8 *129:B 1.6 
5 *25:4 *147:B1_N 11.285 
*END

*D_NET *26 0.00556838
*CONN
*I *134:A I *D sky130_fd_sc_hd__and3_1
*I *139:A I *D sky130_fd_sc_hd__nand3_1
*I *131:X O *D sky130_fd_sc_hd__or4b_1
*CAP
1 *134:A 0.000685692
2 *139:A 0.00102546
3 *131:X 0
4 *26:4 0.00171115
5 *134:A *131:C 0.000198339
6 *134:A *134:C 9.16315e-05
7 *134:A *139:B 0
8 *134:A *140:A 2.781e-05
9 *134:A *45:24 1.52184e-05
10 *134:A *45:26 0.000273088
11 *134:A *45:39 0
12 *134:A *45:59 4.35348e-05
13 *139:A *139:B 4.82863e-05
14 *139:A *139:C 0
15 *139:A *31:10 0
16 *139:A *32:14 7.34364e-05
17 *139:A *42:102 0.00107863
18 *139:A *49:10 0.000296094
19 *153:RESET_B *134:A 0
*RES
1 *131:X *26:4 1.6 
2 *26:4 *139:A 26.93 
3 *26:4 *134:A 17.225 
*END

*D_NET *27 0.00401083
*CONN
*I *136:B I *D sky130_fd_sc_hd__xnor2_1
*I *134:B I *D sky130_fd_sc_hd__and3_1
*I *132:Y O *D sky130_fd_sc_hd__nand3_1
*CAP
1 *136:B 0.000100929
2 *134:B 0.000446284
3 *132:Y 0.000274533
4 *27:10 0.000821746
5 *134:B *135:A 0.000123225
6 *134:B *145:A 5.16348e-05
7 *134:B *166:A 0.000136643
8 *134:B *167:A 2.96426e-05
9 *134:B *42:18 2.92496e-05
10 *134:B *42:24 0.000160651
11 *136:B *164:A 4.66108e-05
12 *136:B *44:56 1.4389e-05
13 *27:10 *145:A 0.000718789
14 *27:10 *146:A2 0.00022786
15 *27:10 *162:A 8.40269e-05
16 *27:10 *42:16 9.37731e-05
17 *27:10 *42:18 0.000622654
18 count[1] *134:B 0
19 *153:RESET_B *134:B 2.8185e-05
*RES
1 *132:Y *27:10 14.04 
2 *27:10 *134:B 11.085 
3 *27:10 *136:B 5.1 
*END

*D_NET *28 0.00032625
*CONN
*I *134:C I *D sky130_fd_sc_hd__and3_1
*I *133:X O *D sky130_fd_sc_hd__a21o_1
*CAP
1 *134:C 7.06039e-05
2 *133:X 7.06039e-05
3 *134:A *134:C 9.16315e-05
4 *153:RESET_B *134:C 9.3411e-05
*RES
1 *133:X *134:C 9.255 
*END

*D_NET *29 0.0026388
*CONN
*I *135:A I *D sky130_fd_sc_hd__clkbuf_1
*I *134:X O *D sky130_fd_sc_hd__and3_1
*CAP
1 *135:A 0.000475955
2 *134:X 0.000475955
3 *135:A *128:A 0.000199039
4 *135:A *162:A 0.000136884
5 *135:A *167:A 0.00031041
6 *135:A *44:39 7.67382e-05
7 *135:A *44:86 5.83373e-05
8 *134:B *135:A 0.000123225
9 *152:RESET_B *135:A 0.000317485
10 *153:RESET_B *135:A 0.000105086
11 *155:D *135:A 0.000359691
*RES
1 *134:X *135:A 22.47 
*END

*D_NET *30 0.00481958
*CONN
*I *139:B I *D sky130_fd_sc_hd__nand3_1
*I *137:X O *D sky130_fd_sc_hd__or4b_1
*CAP
1 *139:B 0.00121294
2 *137:X 0.00121294
3 *139:B *147:A1 0
4 *139:B *147:A2 5.88083e-05
5 *139:B *149:A 0
6 *139:B *154:CLK 9.05571e-05
7 *139:B *155:CLK 0.000530721
8 *139:B *36:10 0.000218031
9 *139:B *37:10 0.000465929
10 *139:B *38:12 0
11 *139:B *42:88 0
12 *139:B *45:24 0
13 *139:B *45:39 5.42473e-05
14 *134:A *139:B 0
15 *139:A *139:B 4.82863e-05
16 *146:B1_N *139:B 0.000696475
17 *152:D *139:B 6.74079e-05
18 *154:RESET_B *139:B 4.94326e-05
19 *157:A *139:B 0.000113812
*RES
1 *137:X *139:B 34.695 
*END

*D_NET *31 0.00409741
*CONN
*I *143:B1 I *D sky130_fd_sc_hd__o21ai_1
*I *139:C I *D sky130_fd_sc_hd__nand3_1
*I *141:B1_N I *D sky130_fd_sc_hd__a21bo_1
*I *138:Y O *D sky130_fd_sc_hd__a21oi_1
*CAP
1 *143:B1 6.23868e-05
2 *139:C 0.000272555
3 *141:B1_N 4.43494e-05
4 *138:Y 0
5 *31:10 0.00111535
6 *31:4 0.000860829
7 *139:C *49:10 0.000121605
8 *143:B1 *143:A2 4.66108e-05
9 *143:B1 *158:A 0.00013521
10 *143:B1 *33:10 7.63125e-05
11 *143:B1 *44:35 4.66108e-05
12 *31:10 *146:A2 0.000567135
13 *31:10 *162:A 0.00037762
14 *31:10 *32:14 0.000294124
15 *31:10 *43:22 3.10886e-05
16 *31:10 *43:28 4.56239e-05
17 *139:A *139:C 0
18 *139:A *31:10 0
*RES
1 *138:Y *31:4 1.6 
2 *31:4 *31:10 18.245 
3 *31:10 *141:B1_N 4.05 
4 *31:10 *139:C 8.805 
5 *31:4 *143:B1 7.685 
*END

*D_NET *32 0.0058458
*CONN
*I *147:A2 I *D sky130_fd_sc_hd__o21ba_1
*I *141:A2 I *D sky130_fd_sc_hd__a21bo_1
*I *140:X O *D sky130_fd_sc_hd__or2_1
*CAP
1 *147:A2 0.00057344
2 *141:A2 0
3 *140:X 0.000767432
4 *32:14 0.00134087
5 *147:A2 *147:A1 4.82863e-05
6 *147:A2 *155:CLK 0.00035825
7 *147:A2 *159:A 6.77501e-05
8 *147:A2 *169:A 0.000420141
9 *147:A2 *37:10 0.000109009
10 *147:A2 *38:10 0
11 *147:A2 *42:94 0.000484818
12 *32:14 *140:A 0
13 *32:14 *42:94 4.66108e-05
14 *32:14 *42:102 0.00108432
15 *32:14 *43:36 0
16 *32:14 *43:42 0
17 *139:A *32:14 7.34364e-05
18 *139:B *147:A2 5.88083e-05
19 *147:B1_N *147:A2 4.00541e-06
20 *155:RESET_B *147:A2 0.000114492
21 *31:10 *32:14 0.000294124
*RES
1 *140:X *32:14 23.795 
2 *32:14 *141:A2 1.6 
3 *32:14 *147:A2 20.33 
*END

*D_NET *33 0.00379103
*CONN
*I *147:A1 I *D sky130_fd_sc_hd__o21ba_1
*I *143:A1 I *D sky130_fd_sc_hd__o21ai_1
*I *142:Y O *D sky130_fd_sc_hd__inv_2
*CAP
1 *147:A1 0.000388763
2 *143:A1 0
3 *142:Y 0.000795813
4 *33:10 0.00118458
5 *147:A1 *138:A2 2.14129e-05
6 *147:A1 *150:A 0.000137571
7 *147:A1 *158:A 4.53623e-05
8 *147:A1 *159:A 5.98473e-05
9 *147:A1 *42:88 5.12942e-05
10 *147:A1 *42:94 6.86906e-05
11 *147:A1 *45:16 5.38986e-05
12 *147:A1 *45:100 0.000188437
13 *33:10 *138:A2 0.000203067
14 *33:10 *158:A 7.10424e-05
15 *33:10 *45:16 2.23485e-05
16 *33:10 *45:24 3.67779e-05
17 *139:B *147:A1 0
18 *143:B1 *33:10 7.63125e-05
19 *146:B1_N *147:A1 0
20 *147:A2 *147:A1 4.82863e-05
21 *147:B1_N *147:A1 0.000337531
22 *152:D *147:A1 0
23 *157:A *147:A1 0
*RES
1 *142:Y *33:10 13.935 
2 *33:10 *143:A1 3.6 
3 *33:10 *147:A1 14.1 
*END

*D_NET *34 0.00311149
*CONN
*I *145:A I *D sky130_fd_sc_hd__buf_1
*I *144:X O *D sky130_fd_sc_hd__or3_1
*CAP
1 *145:A 0.000431915
2 *144:X 0.000431915
3 *145:A *151:A 0.000186092
4 *145:A *161:A 0.000105876
5 *145:A *170:A 0.000453618
6 *145:A *39:8 0.000301246
7 *145:A *42:14 0.00018297
8 *145:A *42:16 5.92269e-05
9 *145:A *43:14 0.000141599
10 count[0] *145:A 0
11 *134:B *145:A 5.16348e-05
12 *155:RESET_B *145:A 4.66108e-05
13 *27:10 *145:A 0.000718789
*RES
1 *144:X *145:A 23.565 
*END

*D_NET *35 0.00475643
*CONN
*I *159:A I *D sky130_fd_sc_hd__clkbuf_16
*I *158:A I *D sky130_fd_sc_hd__clkbuf_16
*I *157:X O *D sky130_fd_sc_hd__clkbuf_16
*CAP
1 *159:A 0.000347406
2 *158:A 0.000542916
3 *157:X 0.000205812
4 *35:8 0.00109613
5 *158:A *128:A 0.000113154
6 *158:A *45:24 0
7 *158:A *45:100 0.000273008
8 *159:A *128:A 0.000112123
9 *159:A *144:B 2.37321e-05
10 *159:A *169:A 0
11 *159:A *45:100 0.000106655
12 *35:8 *151:A 3.81908e-06
13 *35:8 *169:A 0.00022786
14 *143:B1 *158:A 0.00013521
15 *147:A1 *158:A 4.53623e-05
16 *147:A1 *159:A 5.98473e-05
17 *147:A2 *159:A 6.77501e-05
18 *147:B1_N *159:A 0.000281715
19 *152:RESET_B *158:A 0.000163204
20 *152:RESET_B *159:A 0
21 *153:D *158:A 0
22 *153:RESET_B *158:A 0.000367688
23 *155:D *158:A 0.000511985
24 *33:10 *158:A 7.10424e-05
*RES
1 *157:X *35:8 6.12 
2 *35:8 *158:A 18.24 
3 *35:8 *159:A 11.19 
*END

*D_NET *36 0.00274099
*CONN
*I *154:CLK I *D sky130_fd_sc_hd__dfrtp_4
*I *153:CLK I *D sky130_fd_sc_hd__dfrtp_4
*I *158:X O *D sky130_fd_sc_hd__clkbuf_16
*CAP
1 *154:CLK 0.000278766
2 *153:CLK 0
3 *158:X 0.000499328
4 *36:10 0.000778094
5 *154:CLK *44:12 6.03934e-05
6 *154:CLK *44:35 0
7 *154:CLK *45:16 6.15341e-05
8 *154:CLK *45:24 6.25833e-05
9 *36:10 *45:24 0.000216156
10 *139:B *154:CLK 9.05571e-05
11 *139:B *36:10 0.000218031
12 *146:B1_N *154:CLK 0.000134516
13 *152:RESET_B *36:10 0.0002187
14 *153:D *36:10 0.000122337
*RES
1 *158:X *36:10 14.01 
2 *36:10 *153:CLK 3.6 
3 *36:10 *154:CLK 9.48 
*END

*D_NET *37 0.00260931
*CONN
*I *152:CLK I *D sky130_fd_sc_hd__dfrtp_4
*I *155:CLK I *D sky130_fd_sc_hd__dfrtp_4
*I *159:X O *D sky130_fd_sc_hd__clkbuf_16
*CAP
1 *152:CLK 0
2 *155:CLK 0.000194374
3 *159:X 0.000267331
4 *37:10 0.000461705
5 *155:CLK *45:12 6.83659e-05
6 *139:B *155:CLK 0.000530721
7 *139:B *37:10 0.000465929
8 *147:A2 *155:CLK 0.00035825
9 *147:A2 *37:10 0.000109009
10 *155:D *155:CLK 6.20937e-05
11 *155:RESET_B *155:CLK 9.1535e-05
*RES
1 *159:X *37:10 8.19 
2 *37:10 *155:CLK 10.965 
3 *37:10 *152:CLK 3.6 
*END

*D_NET *38 0.00719201
*CONN
*I *151:A I *D sky130_fd_sc_hd__inv_2
*I *150:A I *D sky130_fd_sc_hd__inv_2
*I *148:A I *D sky130_fd_sc_hd__inv_2
*I *149:A I *D sky130_fd_sc_hd__inv_2
*I *160:X O *D sky130_fd_sc_hd__clkbuf_2
*CAP
1 *151:A 0.000447086
2 *150:A 0.000102056
3 *148:A 3.85743e-05
4 *149:A 0.000410224
5 *160:X 0.000513189
6 *38:36 0.000966549
7 *38:12 0.00107743
8 *38:10 0.00155922
9 *148:A *131:B 2.0514e-05
10 *149:A *131:B 5.20968e-05
11 *149:A *43:34 8.30853e-06
12 *149:A *43:36 0.000198492
13 *149:A *43:42 0.000134379
14 *149:A *45:39 0
15 *150:A *45:100 8.57024e-05
16 *151:A *169:A 0.00010682
17 *151:A *170:A 2.15594e-05
18 *151:A *171:A 4.82919e-05
19 *151:A *42:12 8.53113e-06
20 *151:A *42:14 0.000227536
21 *38:12 *43:28 7.14438e-05
22 *38:12 *43:34 0.000330717
23 *38:36 *169:A 2.36616e-05
24 *38:36 *42:94 0.000279417
25 *139:B *149:A 0
26 *139:B *38:12 0
27 *145:A *151:A 0.000186092
28 *146:B1_N *150:A 0
29 *147:A1 *150:A 0.000137571
30 *147:A2 *38:10 0
31 *153:D *148:A 4.94457e-05
32 *154:RESET_B *38:12 0
33 *155:D *150:A 3.03775e-05
34 *155:RESET_B *151:A 4.82919e-05
35 *155:RESET_B *38:10 0
36 *155:RESET_B *38:12 0
37 *157:A *150:A 4.61701e-06
38 *35:8 *151:A 3.81908e-06
*RES
1 *160:X *38:10 10.905 
2 *38:10 *38:12 11.58 
3 *38:12 *149:A 11.22 
4 *38:12 *148:A 4.395 
5 *38:10 *38:36 7.28 
6 *38:36 *150:A 8.03 
7 *38:36 *151:A 12.95 
*END

*D_NET *39 0.00426801
*CONN
*I *161:A I *D sky130_fd_sc_hd__buf_1
*I *146:A2 I *D sky130_fd_sc_hd__o21ba_1
*I *145:X O *D sky130_fd_sc_hd__buf_1
*CAP
1 *161:A 0.000125341
2 *146:A2 0.000295297
3 *145:X 0.00029537
4 *39:8 0.000716007
5 *146:A2 *146:A1 5.4155e-06
6 *146:A2 *162:A 5.29938e-05
7 *146:A2 *43:14 0.00029933
8 *146:A2 *43:16 8.23457e-05
9 *146:A2 *43:18 0.000123225
10 *146:A2 *43:22 0.000188102
11 *161:A *163:A 0.000340587
12 *161:A *170:A 0.000141606
13 *39:8 *163:A 3.09164e-05
14 *39:8 *43:14 0.00013994
15 an *39:8 2.90019e-05
16 seg[6] *39:8 4.10914e-05
17 *145:A *161:A 0.000105876
18 *145:A *39:8 0.000301246
19 *146:B1_N *146:A2 0.000159324
20 *27:10 *146:A2 0.00022786
21 *31:10 *146:A2 0.000567135
*RES
1 *145:X *39:8 11.355 
2 *39:8 *146:A2 13.38 
3 *39:8 *161:A 7.98 
*END

*D_NET *40 0.0023244
*CONN
*I *162:A I *D sky130_fd_sc_hd__buf_1
*I *146:X O *D sky130_fd_sc_hd__o21ba_1
*CAP
1 *162:A 0.00060331
2 *146:X 0.00060331
3 *162:A *143:A2 1.91597e-05
4 *162:A *170:A 0.000229541
5 *162:A *44:35 8.23457e-05
6 *135:A *162:A 0.000136884
7 *146:A2 *162:A 5.29938e-05
8 *152:RESET_B *162:A 0.00013521
9 *27:10 *162:A 8.40269e-05
10 *31:10 *162:A 0.00037762
*RES
1 *146:X *162:A 16.98 
*END

*D_NET *41 0.00247126
*CONN
*I *163:A I *D sky130_fd_sc_hd__buf_1
*I *147:X O *D sky130_fd_sc_hd__o21ba_1
*CAP
1 *163:A 0.000773778
2 *147:X 0.000773778
3 *163:A *170:A 0.000420062
4 seg[2] *163:A 5.8807e-05
5 seg[3] *163:A 1.17114e-05
6 seg[4] *163:A 4.99102e-05
7 seg[5] *163:A 1.17114e-05
8 *161:A *163:A 0.000340587
9 *39:8 *163:A 3.09164e-05
*RES
1 *147:X *163:A 22.245 
*END

*D_NET *42 0.0131348
*CONN
*I *129:A I *D sky130_fd_sc_hd__nor2_1
*I *141:A1 I *D sky130_fd_sc_hd__a21bo_1
*I *130:B I *D sky130_fd_sc_hd__xor2_1
*I *131:B I *D sky130_fd_sc_hd__or4b_1
*I *144:A I *D sky130_fd_sc_hd__or3_1
*I *143:A2 I *D sky130_fd_sc_hd__o21ai_1
*I *132:B I *D sky130_fd_sc_hd__nand3_1
*I *164:A I *D sky130_fd_sc_hd__buf_1
*I *133:A2 I *D sky130_fd_sc_hd__a21o_1
*I *137:D_N I *D sky130_fd_sc_hd__or4b_1
*I *152:Q O *D sky130_fd_sc_hd__dfrtp_4
*CAP
1 *129:A 0
2 *141:A1 0
3 *130:B 0
4 *131:B 0.000221132
5 *144:A 1.36534e-05
6 *143:A2 0.000209349
7 *132:B 0.000187588
8 *164:A 0.000142512
9 *133:A2 1.90984e-05
10 *137:D_N 6.46545e-05
11 *152:Q 0.000124796
12 *42:102 0.000552285
13 *42:94 0.000658116
14 *42:88 0.000838291
15 *42:24 0.000199179
16 *42:18 0.00040611
17 *42:16 0.000403728
18 *42:14 0.000452747
19 *42:12 0.000242104
20 *42:10 0.000689145
21 *131:B *130:A 4.88478e-05
22 *132:B *132:C 0.000120655
23 *132:B *138:B1 0
24 *132:B *43:14 3.38341e-05
25 *132:B *43:16 4.82919e-05
26 *133:A2 *137:B 4.00541e-06
27 *137:D_N *137:B 4.70919e-05
28 *137:D_N *165:A 3.66286e-05
29 *137:D_N *43:53 0.000198046
30 *137:D_N *44:86 4.66108e-05
31 *143:A2 *44:35 0.000217605
32 *144:A *171:A 4.66108e-05
33 *42:10 *168:A 2.86623e-05
34 *42:10 *169:A 4.54719e-05
35 *42:12 *168:A 5.02217e-05
36 *42:12 *169:A 0.000126679
37 *42:12 *170:A 1.14559e-05
38 *42:14 *169:A 0.00013521
39 *42:14 *44:37 2.07184e-05
40 *42:14 *44:125 7.06865e-05
41 *42:16 *44:37 0.000179015
42 *42:16 *44:39 2.07184e-05
43 *42:18 *44:39 0.000644067
44 *42:24 *165:A 0.00015639
45 *42:24 *166:A 9.14049e-05
46 *42:24 *44:39 7.70828e-05
47 *42:94 *169:A 0.000120182
48 *134:B *42:18 2.92496e-05
49 *134:B *42:24 0.000160651
50 *136:B *164:A 4.66108e-05
51 *139:A *42:102 0.00107863
52 *139:B *42:88 0
53 *143:B1 *143:A2 4.66108e-05
54 *145:A *42:14 0.00018297
55 *145:A *42:16 5.92269e-05
56 *146:B1_N *42:94 5.72829e-05
57 *147:A1 *42:88 5.12942e-05
58 *147:A1 *42:94 6.86906e-05
59 *147:A2 *42:94 0.000484818
60 *148:A *131:B 2.0514e-05
61 *149:A *131:B 5.20968e-05
62 *151:A *42:12 8.53113e-06
63 *151:A *42:14 0.000227536
64 *152:D *42:88 4.05358e-05
65 *152:RESET_B *42:14 0.00018118
66 *152:RESET_B *42:88 1.5913e-05
67 *153:D *131:B 4.82863e-05
68 *155:RESET_B *144:A 4.66108e-05
69 *157:A *42:94 3.09233e-05
70 *162:A *143:A2 1.91597e-05
71 *27:10 *42:16 9.37731e-05
72 *27:10 *42:18 0.000622654
73 *32:14 *42:94 4.66108e-05
74 *32:14 *42:102 0.00108432
75 *38:36 *42:94 0.000279417
*RES
1 *152:Q *42:10 5.7 
2 *42:10 *42:12 1.635 
3 *42:12 *42:14 6.48 
4 *42:14 *42:16 2.4 
5 *42:16 *42:18 7.5 
6 *42:18 *42:24 5.375 
7 *42:24 *137:D_N 3.775 
8 *42:24 *133:A2 1.96 
9 *42:18 *164:A 5.79 
10 *42:16 *132:B 6.24 
11 *42:14 *143:A2 6.81 
12 *42:12 *144:A 4.05 
13 *42:10 *42:88 10.225 
14 *42:88 *42:94 11.15 
15 *42:94 *42:102 17.485 
16 *42:102 *131:B 9.26 
17 *42:102 *130:B 1.6 
18 *42:94 *141:A1 1.6 
19 *42:88 *129:A 3.6 
*END

*D_NET *43 0.00911712
*CONN
*I *128:A I *D sky130_fd_sc_hd__nor3b_1
*I *132:A I *D sky130_fd_sc_hd__nand3_1
*I *138:A1 I *D sky130_fd_sc_hd__a21oi_1
*I *146:A1 I *D sky130_fd_sc_hd__o21ba_1
*I *142:A I *D sky130_fd_sc_hd__inv_2
*I *130:A I *D sky130_fd_sc_hd__xor2_1
*I *131:A I *D sky130_fd_sc_hd__or4b_1
*I *165:A I *D sky130_fd_sc_hd__buf_1
*I *133:A1 I *D sky130_fd_sc_hd__a21o_1
*I *137:A I *D sky130_fd_sc_hd__or4b_1
*I *153:Q O *D sky130_fd_sc_hd__dfrtp_4
*CAP
1 *128:A 0.000261941
2 *132:A 0
3 *138:A1 0
4 *146:A1 1.88809e-05
5 *142:A 0
6 *130:A 4.06676e-05
7 *131:A 0
8 *165:A 0.000341585
9 *133:A1 0
10 *137:A 2.08101e-05
11 *153:Q 0.000261352
12 *43:53 0.000645438
13 *43:42 0.000606485
14 *43:36 0.000395122
15 *43:34 0.00035686
16 *43:28 0.000354958
17 *43:22 0.000461303
18 *43:18 0.000321901
19 *43:16 5.7751e-05
20 *43:14 0.0005495
21 *128:A *44:125 0.000336021
22 *137:A *137:C 0
23 *43:14 *132:C 0.000120655
24 *43:18 *138:B1 6.46447e-05
25 *43:22 *138:B1 9.44548e-05
26 *43:42 *137:C 0.000113763
27 *43:42 *140:A 9.22251e-05
28 *43:42 *140:B 0.000234973
29 *43:53 *137:B 1.03423e-05
30 *43:53 *137:C 1.61831e-05
31 *131:B *130:A 4.88478e-05
32 *132:B *43:14 3.38341e-05
33 *132:B *43:16 4.82919e-05
34 *135:A *128:A 0.000199039
35 *137:D_N *165:A 3.66286e-05
36 *137:D_N *43:53 0.000198046
37 *145:A *43:14 0.000141599
38 *146:A2 *146:A1 5.4155e-06
39 *146:A2 *43:14 0.00029933
40 *146:A2 *43:16 8.23457e-05
41 *146:A2 *43:18 0.000123225
42 *146:A2 *43:22 0.000188102
43 *146:B1_N *43:22 0.000161005
44 *149:A *43:34 8.30853e-06
45 *149:A *43:36 0.000198492
46 *149:A *43:42 0.000134379
47 *152:RESET_B *128:A 1.32017e-05
48 *155:D *128:A 0.000418731
49 *158:A *128:A 0.000113154
50 *159:A *128:A 0.000112123
51 *31:10 *43:22 3.10886e-05
52 *31:10 *43:28 4.56239e-05
53 *32:14 *43:36 0
54 *32:14 *43:42 0
55 *38:12 *43:28 7.14438e-05
56 *38:12 *43:34 0.000330717
57 *39:8 *43:14 0.00013994
58 *42:24 *165:A 0.00015639
*RES
1 *153:Q *43:14 11.585 
2 *43:14 *43:16 0.795 
3 *43:16 *43:18 1.14 
4 *43:18 *43:22 5.64 
5 *43:22 *43:28 4.775 
6 *43:28 *43:34 4.74 
7 *43:34 *43:36 2.4 
8 *43:36 *43:42 7.88 
9 *43:42 *137:A 1.96 
10 *43:42 *43:53 3.915 
11 *43:53 *133:A1 1.6 
12 *43:53 *165:A 5.77 
13 *43:36 *131:A 3.6 
14 *43:34 *130:A 4.395 
15 *43:28 *142:A 3.6 
16 *43:22 *146:A1 1.96 
17 *43:18 *138:A1 1.6 
18 *43:16 *132:A 1.6 
19 *43:14 *128:A 14.42 
*END

*D_NET *44 0.01129
*CONN
*I *144:B I *D sky130_fd_sc_hd__or3_1
*I *128:C_N I *D sky130_fd_sc_hd__nor3b_1
*I *132:C I *D sky130_fd_sc_hd__nand3_1
*I *133:B1 I *D sky130_fd_sc_hd__a21o_1
*I *137:B I *D sky130_fd_sc_hd__or4b_1
*I *131:D_N I *D sky130_fd_sc_hd__or4b_1
*I *140:A I *D sky130_fd_sc_hd__or2_1
*I *166:A I *D sky130_fd_sc_hd__buf_1
*I *138:A2 I *D sky130_fd_sc_hd__a21oi_1
*I *154:Q O *D sky130_fd_sc_hd__dfrtp_4
*CAP
1 *144:B 6.79208e-05
2 *128:C_N 9.73191e-06
3 *132:C 2.85626e-05
4 *133:B1 0
5 *137:B 0.000142216
6 *131:D_N 2.15379e-05
7 *140:A 0.000236469
8 *166:A 0.000234397
9 *138:A2 6.73545e-05
10 *154:Q 0.000691466
11 *44:125 0.000349768
12 *44:86 0.000212145
13 *44:58 0.000690082
14 *44:56 0.000651612
15 *44:39 0.00058061
16 *44:37 0.000288435
17 *44:35 0.000496428
18 *44:12 0.000919866
19 *128:C_N *144:C 4.82863e-05
20 *128:C_N *171:A 4.82863e-05
21 *138:A2 *45:16 0.000222119
22 *140:A *131:C 4.86263e-05
23 *144:B *168:A 4.82919e-05
24 *166:A *167:A 0.00028631
25 *44:35 *170:A 9.82587e-05
26 *44:39 *167:A 2.42236e-05
27 *44:56 *45:59 6.71882e-05
28 *44:58 *131:C 3.15579e-05
29 *44:58 *45:26 0.000101781
30 *44:58 *45:59 0.000157959
31 *44:125 *170:A 8.40213e-05
32 *128:A *44:125 0.000336021
33 *132:B *132:C 0.000120655
34 *133:A2 *137:B 4.00541e-06
35 *134:A *140:A 2.781e-05
36 *134:B *166:A 0.000136643
37 *135:A *44:39 7.67382e-05
38 *135:A *44:86 5.83373e-05
39 *136:B *44:56 1.4389e-05
40 *137:D_N *137:B 4.70919e-05
41 *137:D_N *44:86 4.66108e-05
42 *143:A2 *44:35 0.000217605
43 *143:B1 *44:35 4.66108e-05
44 *147:A1 *138:A2 2.14129e-05
45 *152:RESET_B *144:B 3.67779e-05
46 *152:RESET_B *44:37 0.000191202
47 *152:RESET_B *44:39 0.000497416
48 *152:RESET_B *44:125 0.000388881
49 *153:RESET_B *44:86 0.000112123
50 *154:CLK *44:12 6.03934e-05
51 *154:CLK *44:35 0
52 *154:D *44:12 0.000120655
53 *154:D *44:35 0.000137005
54 *159:A *144:B 2.37321e-05
55 *162:A *44:35 8.23457e-05
56 *32:14 *140:A 0
57 *33:10 *138:A2 0.000203067
58 *42:14 *44:37 2.07184e-05
59 *42:14 *44:125 7.06865e-05
60 *42:16 *44:37 0.000179015
61 *42:16 *44:39 2.07184e-05
62 *42:18 *44:39 0.000644067
63 *42:24 *166:A 9.14049e-05
64 *42:24 *44:39 7.70828e-05
65 *43:14 *132:C 0.000120655
66 *43:42 *140:A 9.22251e-05
67 *43:53 *137:B 1.03423e-05
*RES
1 *154:Q *44:12 10.12 
2 *44:12 *138:A2 8.255 
3 *44:12 *44:35 6.485 
4 *44:35 *44:37 2.4 
5 *44:37 *44:39 8.52 
6 *44:39 *166:A 9.555 
7 *44:39 *44:56 3.83 
8 *44:56 *44:58 5.625 
9 *44:58 *140:A 8.9 
10 *44:58 *131:D_N 1.96 
11 *44:56 *44:86 5.83 
12 *44:86 *137:B 4.06 
13 *44:86 *133:B1 1.6 
14 *44:37 *132:C 4.74 
15 *44:35 *44:125 11.68 
16 *44:125 *128:C_N 4.05 
17 *44:125 *144:B 4.92 
*END

*D_NET *45 0.00967344
*CONN
*I *128:B I *D sky130_fd_sc_hd__nor3b_1
*I *144:C I *D sky130_fd_sc_hd__or3_1
*I *138:B1 I *D sky130_fd_sc_hd__a21oi_1
*I *136:A I *D sky130_fd_sc_hd__xnor2_1
*I *167:A I *D sky130_fd_sc_hd__buf_1
*I *137:C I *D sky130_fd_sc_hd__or4b_1
*I *140:B I *D sky130_fd_sc_hd__or2_1
*I *131:C I *D sky130_fd_sc_hd__or4b_1
*I *155:Q O *D sky130_fd_sc_hd__dfrtp_4
*CAP
1 *128:B 0
2 *144:C 6.78876e-05
3 *138:B1 0.00012453
4 *136:A 0
5 *167:A 0.000213163
6 *137:C 0.000117191
7 *140:B 8.81585e-05
8 *131:C 4.646e-05
9 *155:Q 0.000695063
10 *45:100 0.000265404
11 *45:59 0.000395376
12 *45:39 0.000337013
13 *45:26 0.000234678